/*---------------------------------------------------------------------------*\
| =========                 |                                                 |
| \\      /  F ield         | OpenFOAM: The Open Source CFD Toolbox           |
|  \\    /   O peration     | Version:  v1812                                 |
|   \\  /    A nd           | Web:      www.OpenFOAM.com                      |
|    \\/     M anipulation  |                                                 |
\*---------------------------------------------------------------------------*/
Build  : v1812 OPENFOAM=1812
Arch   : "LSB;label=32;scalar=64"
Exec   : pimpleFoam -parallel
Date   : Dec 17 2025
Time   : 15:46:43
Host   : f68e80012cc9
PID    : 623
I/O    : uncollated
Case   : /home/dafoamuser/mount
nProcs : 4
Hosts  :
(
    (f68e80012cc9 4)
)
Pstream initialized with:
    floatTransfer      : 0
    nProcsSimpleSum    : 0
    commsType          : nonBlocking
    polling iterations : 0
trapFpe: Floating point exception trapping enabled (FOAM_SIGFPE).
fileModificationChecking : Monitoring run-time modified files using timeStampMaster (fileModificationSkew 10)
allowSystemOperations : Allowing user-supplied system call operations

// * * * * * * * * * * * * * * * * * * * * * * * * * * * * * * * * * * * * * //
Create time

Overriding DebugSwitches according to controlDict
    SolverPerformance 0;

Create mesh for time = 0


PIMPLE: max iterations = 5
    field "(U|T|e|h|nuTilda|k|omega|epsilon|p|p_rgh|G)"	: relTol 1e-08, tolerance 1e-08

Reading field p

Reading field U

Reading/calculating face flux field phi

Selecting incompressible transport model Newtonian
Selecting turbulence model type RAS
Selecting RAS turbulence model SpalartAllmaras
Selecting patchDistMethod meshWave
No MRF models present

No finite volume options present
Courant Number mean: 0.0449754691736427 max: 190.3973970516957

Starting time loop

Courant Number mean: 0.0449754691736427 max: 190.3973970516957
Time = 0.001

PIMPLE: iteration 1
time step continuity errors : sum local = 2.423788331220687e-08, global = -8.174515962090581e-10, cumulative = -8.174515962090581e-10
time step continuity errors : sum local = 1.374922702936261e-12, global = -1.687122420820812e-14, cumulative = -8.174684674332663e-10
PIMPLE: iteration 2
time step continuity errors : sum local = 2.269413727079428e-08, global = -5.05697544497976e-10, cumulative = -1.323166011931242e-09
time step continuity errors : sum local = 1.266199085254961e-12, global = 1.14221315056097e-14, cumulative = -1.323154589799737e-09
PIMPLE: iteration 3
time step continuity errors : sum local = 1.113089723346649e-08, global = -8.765728392239339e-11, cumulative = -1.41081187372213e-09
time step continuity errors : sum local = 1.299384121950153e-12, global = 4.045888272712644e-14, cumulative = -1.410771414839403e-09
PIMPLE: iteration 4
time step continuity errors : sum local = 7.1828282765264e-09, global = 9.773954081019648e-11, cumulative = -1.313031874029207e-09
time step continuity errors : sum local = 1.527234760818263e-12, global = 6.998534497754721e-14, cumulative = -1.312961888684229e-09
PIMPLE: iteration 5
time step continuity errors : sum local = 2.146453045411816e-08, global = -1.093545142343473e-10, cumulative = -1.422316402918576e-09
time step continuity errors : sum local = 1.541631343694263e-12, global = -4.288440462276472e-14, cumulative = -1.422359287323199e-09
PIMPLE: not converged within 5 iterations
ExecutionTime = 0.68 s  ClockTime = 1 s

Courant Number mean: 0.04494277269123971 max: 217.6410878336203
Time = 0.002

PIMPLE: iteration 1
time step continuity errors : sum local = 1.804186590908184e-08, global = 4.636579574607378e-10, cumulative = -9.587013298624613e-10
time step continuity errors : sum local = 9.080758626532237e-13, global = 1.199040274694045e-14, cumulative = -9.586893394597145e-10
PIMPLE: iteration 2
time step continuity errors : sum local = 1.452437291605976e-08, global = 3.565386334540197e-10, cumulative = -6.021507060056947e-10
time step continuity errors : sum local = 9.513553696740543e-13, global = 2.379479609240257e-14, cumulative = -6.021269112096023e-10
PIMPLE: iteration 3
time step continuity errors : sum local = 8.058341154493229e-09, global = 2.031208800611535e-10, cumulative = -3.990060311484488e-10
time step continuity errors : sum local = 9.069895660650682e-13, global = 4.499822369213377e-14, cumulative = -3.989610329247567e-10
PIMPLE: iteration 4
time step continuity errors : sum local = 7.805305392250794e-09, global = 2.622381413458254e-10, cumulative = -1.367228915789312e-10
time step continuity errors : sum local = 1.200421895168943e-12, global = 9.603619147768817e-14, cumulative = -1.366268553874535e-10
PIMPLE: iteration 5
time step continuity errors : sum local = 1.625265112898334e-08, global = -6.262232449663244e-10, cumulative = -7.628501003537778e-10
time step continuity errors : sum local = 9.315189183391504e-13, global = -7.674713613876197e-14, cumulative = -7.629268474899166e-10
PIMPLE: not converged within 5 iterations
ExecutionTime = 1.21 s  ClockTime = 1 s

Courant Number mean: 0.0449248795700286 max: 237.807655555474
Time = 0.003

PIMPLE: iteration 1
time step continuity errors : sum local = 2.195397249956617e-08, global = 1.602724478062859e-09, cumulative = 8.397976305729423e-10
time step continuity errors : sum local = 8.611701694315775e-13, global = 3.216115502454159e-14, cumulative = 8.398297917279668e-10
PIMPLE: iteration 2
time step continuity errors : sum local = 9.538833308924708e-09, global = 6.821909137003667e-10, cumulative = 1.522020705428334e-09
time step continuity errors : sum local = 9.269066554947021e-13, global = 7.507008309810608e-14, cumulative = 1.522095775511432e-09
PIMPLE: iteration 3
time step continuity errors : sum local = 8.050303957608569e-09, global = 3.820247324181829e-10, cumulative = 1.904120507929615e-09
time step continuity errors : sum local = 9.086380591998815e-13, global = 5.648388582730473e-14, cumulative = 1.904176991815442e-09
PIMPLE: iteration 4
time step continuity errors : sum local = 6.750937069131395e-09, global = 2.466387373661716e-10, cumulative = 2.150815729181614e-09
time step continuity errors : sum local = 1.015730977692139e-12, global = 6.588261393393585e-14, cumulative = 2.150881611795548e-09
PIMPLE: iteration 5
time step continuity errors : sum local = 2.454065710052985e-08, global = -1.244965414004476e-09, cumulative = 9.05916197791072e-10
time step continuity errors : sum local = 1.087511533184886e-12, global = -9.986105296190135e-14, cumulative = 9.058163367381102e-10
PIMPLE: not converged within 5 iterations
ExecutionTime = 1.75 s  ClockTime = 2 s

Courant Number mean: 0.04490879925645971 max: 250.0566823987291
Time = 0.004

PIMPLE: iteration 1
time step continuity errors : sum local = 1.963582089942603e-08, global = 9.281379699950886e-10, cumulative = 1.833954306733199e-09
time step continuity errors : sum local = 9.466652221029323e-13, global = 2.056848241537408e-14, cumulative = 1.833974875215614e-09
PIMPLE: iteration 2
time step continuity errors : sum local = 1.393750061167408e-08, global = 7.054586490184288e-10, cumulative = 2.539433524234043e-09
time step continuity errors : sum local = 9.665222712495147e-13, global = 2.464037235847901e-14, cumulative = 2.539458164606402e-09
PIMPLE: iteration 3
time step continuity errors : sum local = 6.776175204173536e-09, global = 3.78719979167532e-10, cumulative = 2.918178143773934e-09
time step continuity errors : sum local = 9.216512123077776e-13, global = 8.628858073908479e-14, cumulative = 2.918264432354673e-09
PIMPLE: iteration 4
time step continuity errors : sum local = 6.149192422365567e-09, global = 2.001712664539566e-10, cumulative = 3.11843569880863e-09
time step continuity errors : sum local = 1.115722079435715e-12, global = 7.745034431657653e-14, cumulative = 3.118513149152946e-09
PIMPLE: iteration 5
time step continuity errors : sum local = 2.265631237793284e-08, global = -1.163714003181293e-09, cumulative = 1.954799145971653e-09
time step continuity errors : sum local = 9.717296403841465e-13, global = -9.089169268837467e-14, cumulative = 1.954708254278965e-09
PIMPLE: not converged within 5 iterations
ExecutionTime = 2.32 s  ClockTime = 3 s

Courant Number mean: 0.04489477748573772 max: 259.0051237917407
Time = 0.005

PIMPLE: iteration 1
time step continuity errors : sum local = 1.853089532682196e-08, global = 8.150596324600255e-10, cumulative = 2.76976788673899e-09
time step continuity errors : sum local = 9.149626124100147e-13, global = 2.206215484982902e-14, cumulative = 2.76978994889384e-09
PIMPLE: iteration 2
time step continuity errors : sum local = 1.290100806755549e-08, global = 6.082070435977154e-10, cumulative = 3.377996992491555e-09
time step continuity errors : sum local = 1.058370188229731e-12, global = 2.48324792105528e-14, cumulative = 3.378021824970766e-09
PIMPLE: iteration 3
time step continuity errors : sum local = 6.439587801104219e-09, global = 3.57401397702251e-10, cumulative = 3.735423222673017e-09
time step continuity errors : sum local = 9.639082036949213e-13, global = 1.060718494230062e-13, cumulative = 3.73552929452244e-09
PIMPLE: iteration 4
time step continuity errors : sum local = 6.349410698767034e-09, global = 1.772602201607959e-10, cumulative = 3.912789514683236e-09
time step continuity errors : sum local = 1.02092170950137e-12, global = 6.453668859055576e-14, cumulative = 3.912854051371827e-09
PIMPLE: iteration 5
time step continuity errors : sum local = 2.238007975323777e-08, global = -1.151461101912715e-09, cumulative = 2.761392949459112e-09
time step continuity errors : sum local = 9.315638521192223e-13, global = -8.747561614171753e-14, cumulative = 2.76130547384297e-09
PIMPLE: not converged within 5 iterations
ExecutionTime = 2.87 s  ClockTime = 3 s

Courant Number mean: 0.04488380425764359 max: 267.5649029419741
Time = 0.006

PIMPLE: iteration 1
time step continuity errors : sum local = 1.85486718557443e-08, global = 8.507622588786382e-10, cumulative = 3.612067732721608e-09
time step continuity errors : sum local = 9.036143291881105e-13, global = 2.129646787503016e-14, cumulative = 3.612089029189483e-09
PIMPLE: iteration 2
time step continuity errors : sum local = 1.288892069710115e-08, global = 6.53173974753372e-10, cumulative = 4.265263003942855e-09
time step continuity errors : sum local = 1.034852643711742e-12, global = 2.211766490430211e-14, cumulative = 4.265285121607759e-09
PIMPLE: iteration 3
time step continuity errors : sum local = 6.602481920156744e-09, global = 3.73048349813133e-10, cumulative = 4.638333471420892e-09
time step continuity errors : sum local = 1.006376794264263e-12, global = 9.937861567699092e-14, cumulative = 4.638432850036569e-09
PIMPLE: iteration 4
time step continuity errors : sum local = 6.410479858325319e-09, global = 1.680633101341273e-10, cumulative = 4.806496160170695e-09
time step continuity errors : sum local = 1.151677987027904e-12, global = 6.802647796148636e-14, cumulative = 4.806564186648657e-09
PIMPLE: iteration 5
time step continuity errors : sum local = 2.261566403187561e-08, global = -1.186131248200977e-09, cumulative = 3.62043293844768e-09
time step continuity errors : sum local = 1.062125227608823e-12, global = -9.921146691551982e-14, cumulative = 3.620333726980765e-09
PIMPLE: not converged within 5 iterations
ExecutionTime = 3.42 s  ClockTime = 4 s

Courant Number mean: 0.04487573517819422 max: 276.1326685763938
Time = 0.007

PIMPLE: iteration 1
time step continuity errors : sum local = 1.83485718763698e-08, global = 8.569483062699801e-10, cumulative = 4.477282033250745e-09
time step continuity errors : sum local = 9.453446610539035e-13, global = 1.951568874328475e-14, cumulative = 4.477301548939488e-09
PIMPLE: iteration 2
time step continuity errors : sum local = 1.278320758278766e-08, global = 6.746899038737691e-10, cumulative = 5.151991452813257e-09
time step continuity errors : sum local = 9.725909016892774e-13, global = 1.614258925884923e-14, cumulative = 5.152007595402516e-09
PIMPLE: iteration 3
time step continuity errors : sum local = 6.580510663964984e-09, global = 3.653082481962125e-10, cumulative = 5.517315843598728e-09
time step continuity errors : sum local = 8.947340858947698e-13, global = 7.060743522288292e-14, cumulative = 5.517386451033952e-09
PIMPLE: iteration 4
time step continuity errors : sum local = 6.185203317163941e-09, global = 1.575948300528275e-10, cumulative = 5.674981281086779e-09
time step continuity errors : sum local = 1.051705269799711e-12, global = 5.932331742425327e-14, cumulative = 5.675040604404203e-09
PIMPLE: iteration 5
time step continuity errors : sum local = 2.29505710421335e-08, global = -1.173894496479154e-09, cumulative = 4.501146107925049e-09
time step continuity errors : sum local = 1.120090617271012e-12, global = -1.037912456359486e-13, cumulative = 4.501042316679413e-09
PIMPLE: not converged within 5 iterations
ExecutionTime = 3.95 s  ClockTime = 4 s

Courant Number mean: 0.04487033299560184 max: 284.3286149082074
Time = 0.008

PIMPLE: iteration 1
time step continuity errors : sum local = 1.812935498901088e-08, global = 8.293146263830216e-10, cumulative = 5.330356943062435e-09
time step continuity errors : sum local = 8.275638672109915e-13, global = 1.347797772150324e-14, cumulative = 5.330370421040156e-09
PIMPLE: iteration 2
time step continuity errors : sum local = 1.264750415710745e-08, global = 6.415388894483162e-10, cumulative = 5.971909310488473e-09
time step continuity errors : sum local = 9.706269747026485e-13, global = 1.144378314381195e-14, cumulative = 5.971920754271617e-09
PIMPLE: iteration 3
time step continuity errors : sum local = 6.49289865151163e-09, global = 3.416078890548829e-10, cumulative = 6.3135286433265e-09
time step continuity errors : sum local = 1.025028425282771e-12, global = 1.041521090150809e-13, cumulative = 6.313632795435516e-09
PIMPLE: iteration 4
time step continuity errors : sum local = 6.027835791414681e-09, global = 1.499779427683591e-10, cumulative = 6.463610738203875e-09
time step continuity errors : sum local = 9.190885536974305e-13, global = 5.00254027376368e-14, cumulative = 6.463660763606613e-09
PIMPLE: iteration 5
time step continuity errors : sum local = 2.317535354781447e-08, global = -1.020098696162611e-09, cumulative = 5.443562067444001e-09
time step continuity errors : sum local = 1.107171079977383e-12, global = -1.033457159343531e-13, cumulative = 5.443458721728066e-09
PIMPLE: not converged within 5 iterations
ExecutionTime = 4.47 s  ClockTime = 5 s

Courant Number mean: 0.04486734289957216 max: 292.3332452058594
Time = 0.009

PIMPLE: iteration 1
time step continuity errors : sum local = 1.809165200793161e-08, global = 7.972250042415291e-10, cumulative = 6.240683725969595e-09
time step continuity errors : sum local = 9.889020320271355e-13, global = 1.661964528671631e-14, cumulative = 6.240700345614882e-09
PIMPLE: iteration 2
time step continuity errors : sum local = 1.256317169541449e-08, global = 5.806126786804337e-10, cumulative = 6.821313024295316e-09
time step continuity errors : sum local = 8.90717423970885e-13, global = 7.233580446623827e-15, cumulative = 6.821320257875763e-09
PIMPLE: iteration 3
time step continuity errors : sum local = 6.265905174280822e-09, global = 3.187378081939311e-10, cumulative = 7.140058066069694e-09
time step continuity errors : sum local = 8.750925760554044e-13, global = 7.120311916934862e-14, cumulative = 7.140129269188863e-09
PIMPLE: iteration 4
time step continuity errors : sum local = 6.199400004838748e-09, global = 1.756630850254419e-10, cumulative = 7.315792354214306e-09
time step continuity errors : sum local = 1.014445868587862e-12, global = 5.992224879176468e-14, cumulative = 7.315852276463098e-09
PIMPLE: iteration 5
time step continuity errors : sum local = 2.347292776402732e-08, global = -7.390325896606689e-10, cumulative = 6.576819686802429e-09
time step continuity errors : sum local = 9.848117412981098e-13, global = -9.301980917395367e-14, cumulative = 6.576726666993255e-09
PIMPLE: not converged within 5 iterations
ExecutionTime = 5 s  ClockTime = 5 s

Courant Number mean: 0.04486636861416913 max: 300.2576809126912
Time = 0.01

PIMPLE: iteration 1
time step continuity errors : sum local = 1.847905795273125e-08, global = 7.591444064213489e-10, cumulative = 7.335871073414603e-09
time step continuity errors : sum local = 8.886823111013826e-13, global = 1.118193644159035e-14, cumulative = 7.335882255351045e-09
PIMPLE: iteration 2
time step continuity errors : sum local = 1.277049981329105e-08, global = 4.957266719998139e-10, cumulative = 7.831608927350859e-09
time step continuity errors : sum local = 1.005366908757549e-12, global = 1.778395033618846e-15, cumulative = 7.831610705745893e-09
PIMPLE: iteration 3
time step continuity errors : sum local = 6.288459517738628e-09, global = 2.978078813585731e-10, cumulative = 8.129418587104467e-09
time step continuity errors : sum local = 9.007839361958022e-13, global = 6.793917648670183e-14, cumulative = 8.129486526280953e-09
PIMPLE: iteration 4
time step continuity errors : sum local = 6.38057178995785e-09, global = 1.722551017496045e-10, cumulative = 8.301741628030558e-09
time step continuity errors : sum local = 1.031699550220282e-12, global = 5.813491540946944e-14, cumulative = 8.301799762945968e-09
PIMPLE: iteration 5
time step continuity errors : sum local = 2.393755567469666e-08, global = -4.769856783322853e-10, cumulative = 7.824814084613682e-09
time step continuity errors : sum local = 9.127348201632199e-13, global = -9.150522593573737e-14, cumulative = 7.824722579387746e-09
PIMPLE: not converged within 5 iterations
ExecutionTime = 5.54 s  ClockTime = 6 s

Courant Number mean: 0.04486769339623747 max: 308.2874563185876
Time = 0.011

PIMPLE: iteration 1
time step continuity errors : sum local = 1.884583392457542e-08, global = 6.849651967836349e-10, cumulative = 8.509687776171381e-09
time step continuity errors : sum local = 1.025323981213901e-12, global = 9.940990551885401e-15, cumulative = 8.509697717161932e-09
PIMPLE: iteration 2
time step continuity errors : sum local = 1.294109729872362e-08, global = 3.984696880595192e-10, cumulative = 8.908167405221452e-09
time step continuity errors : sum local = 8.66862358452472e-13, global = -7.288363965619087e-15, cumulative = 8.908160116857487e-09
PIMPLE: iteration 3
time step continuity errors : sum local = 6.250587926679133e-09, global = 2.729895286275597e-10, cumulative = 9.181149645485047e-09
time step continuity errors : sum local = 9.506591267392333e-13, global = 4.689481755987787e-14, cumulative = 9.181196540302606e-09
PIMPLE: iteration 4
time step continuity errors : sum local = 6.506147087540945e-09, global = 1.739943321145219e-10, cumulative = 9.355190872417128e-09
time step continuity errors : sum local = 1.102007451456211e-12, global = 6.208234595009304e-14, cumulative = 9.355252954763078e-09
PIMPLE: iteration 5
time step continuity errors : sum local = 2.432961762407727e-08, global = -2.858486009038414e-10, cumulative = 9.069404353859237e-09
time step continuity errors : sum local = 1.10697243683128e-12, global = -1.259455903023474e-13, cumulative = 9.069278408268934e-09
PIMPLE: not converged within 5 iterations
ExecutionTime = 6.06 s  ClockTime = 6 s

Courant Number mean: 0.04487104904402607 max: 316.2412189019403
Time = 0.012

PIMPLE: iteration 1
time step continuity errors : sum local = 1.907921294833068e-08, global = 6.152888386718294e-10, cumulative = 9.684567246940762e-09
time step continuity errors : sum local = 9.911207050920559e-13, global = 8.855572109940212e-15, cumulative = 9.684576102512873e-09
PIMPLE: iteration 2
time step continuity errors : sum local = 1.304358717633878e-08, global = 3.370686785614773e-10, cumulative = 1.002164478107435e-08
time step continuity errors : sum local = 1.012025226667965e-12, global = -1.248350415589213e-14, cumulative = 1.002163229757019e-08
PIMPLE: iteration 3
time step continuity errors : sum local = 6.278503481629004e-09, global = 2.609509815652057e-10, cumulative = 1.02825832791354e-08
time step continuity errors : sum local = 9.314180867189282e-13, global = 3.448666336125574e-14, cumulative = 1.028261776579876e-08
PIMPLE: iteration 4
time step continuity errors : sum local = 6.507724949319595e-09, global = 1.704145495052403e-10, cumulative = 1.0453032315304e-08
time step continuity errors : sum local = 9.426231892060815e-13, global = 5.667550025457506e-14, cumulative = 1.045308899080426e-08
PIMPLE: iteration 5
time step continuity errors : sum local = 1.499990371864946e-08, global = -3.675970827635682e-11, cumulative = 1.04163292825279e-08
time step continuity errors : sum local = 1.103153936975202e-12, global = -1.424177988604358e-13, cumulative = 1.041618686472904e-08
PIMPLE: not converged within 5 iterations
ExecutionTime = 6.59 s  ClockTime = 7 s

Courant Number mean: 0.04487535875572587 max: 324.1507974560307
Time = 0.013

PIMPLE: iteration 1
time step continuity errors : sum local = 1.915219559647812e-08, global = 5.520817029764423e-10, cumulative = 1.096826856770548e-08
time step continuity errors : sum local = 9.355235237089022e-13, global = 8.692768943654001e-15, cumulative = 1.096827726047442e-08
PIMPLE: iteration 2
time step continuity errors : sum local = 1.303057722872608e-08, global = 2.893870695542072e-10, cumulative = 1.125766433002863e-08
time step continuity errors : sum local = 9.058796901055011e-13, global = -1.542219751859979e-14, cumulative = 1.125764890783111e-08
PIMPLE: iteration 3
time step continuity errors : sum local = 6.270282253894059e-09, global = 2.469265094288447e-10, cumulative = 1.150457541725996e-08
time step continuity errors : sum local = 9.673408607816596e-13, global = 1.919895192922665e-14, cumulative = 1.150459461621189e-08
PIMPLE: iteration 4
time step continuity errors : sum local = 6.616466598558659e-09, global = 1.603674404294059e-10, cumulative = 1.166496205664129e-08
time step continuity errors : sum local = 9.625543872047447e-13, global = 5.366298367297679e-14, cumulative = 1.166501571962496e-08
PIMPLE: iteration 5
time step continuity errors : sum local = 1.476087317880662e-08, global = -1.57496756234846e-11, cumulative = 1.164926604400148e-08
time step continuity errors : sum local = 9.795941401796351e-13, global = -1.306841014376856e-13, cumulative = 1.164913535990004e-08
PIMPLE: not converged within 5 iterations
ExecutionTime = 7.12 s  ClockTime = 7 s

Courant Number mean: 0.0448807346098767 max: 331.8090934561033
Time = 0.014

PIMPLE: iteration 1
time step continuity errors : sum local = 1.89846025198863e-08, global = 4.842131523866147e-10, cumulative = 1.213334851228666e-08
time step continuity errors : sum local = 8.594682324320303e-13, global = 7.184387740435987e-15, cumulative = 1.21333556966744e-08
PIMPLE: iteration 2
time step continuity errors : sum local = 1.283125717868606e-08, global = 2.408407842007069e-10, cumulative = 1.23741964808751e-08
time step continuity errors : sum local = 8.689548743686984e-13, global = -1.478822358029677e-14, cumulative = 1.237418169265152e-08
PIMPLE: iteration 3
time step continuity errors : sum local = 6.226517166316806e-09, global = 2.170900443834408e-10, cumulative = 1.259127173703497e-08
time step continuity errors : sum local = 1.075567661657766e-12, global = -5.907606699554841e-15, cumulative = 1.259126582942827e-08
PIMPLE: iteration 4
time step continuity errors : sum local = 6.584682559939319e-09, global = 1.237132183931105e-10, cumulative = 1.271497904782138e-08
time step continuity errors : sum local = 9.810438721770154e-13, global = 3.028740170841775e-14, cumulative = 1.271500933522308e-08
PIMPLE: iteration 5
time step continuity errors : sum local = 2.36958598516631e-08, global = -1.280384305673035e-10, cumulative = 1.258697090465578e-08
time step continuity errors : sum local = 9.454725182157696e-13, global = -1.011008104805971e-13, cumulative = 1.25868698038453e-08
PIMPLE: not converged within 5 iterations
ExecutionTime = 7.65 s  ClockTime = 8 s

Courant Number mean: 0.04488763037638047 max: 339.2538751092097
Time = 0.015

PIMPLE: iteration 1
time step continuity errors : sum local = 1.871038296209944e-08, global = 4.556485639621919e-10, cumulative = 1.304251836780749e-08
time step continuity errors : sum local = 9.280735399386853e-13, global = 1.122488827994564e-14, cumulative = 1.304252959269577e-08
PIMPLE: iteration 2
time step continuity errors : sum local = 1.264606069029486e-08, global = 2.300191523331041e-10, cumulative = 1.327254874502888e-08
time step continuity errors : sum local = 9.353444021248198e-13, global = -9.816238261641572e-15, cumulative = 1.327253892879061e-08
PIMPLE: iteration 3
time step continuity errors : sum local = 6.166435144155763e-09, global = 1.966074220701041e-10, cumulative = 1.346914635086072e-08
time step continuity errors : sum local = 1.036646146530154e-12, global = -1.928332875566437e-14, cumulative = 1.346912706753196e-08
PIMPLE: iteration 4
time step continuity errors : sum local = 6.618392038560877e-09, global = 9.612174181858384e-11, cumulative = 1.356524880935055e-08
time step continuity errors : sum local = 1.075209738918988e-12, global = 7.859157596305178e-15, cumulative = 1.356525666850814e-08
PIMPLE: iteration 5
time step continuity errors : sum local = 2.304036362860419e-08, global = -1.837904449341536e-10, cumulative = 1.338146622357399e-08
time step continuity errors : sum local = 1.090344906121071e-12, global = -9.955055253585548e-14, cumulative = 1.338136667302145e-08
PIMPLE: not converged within 5 iterations
ExecutionTime = 8.18 s  ClockTime = 8 s

Courant Number mean: 0.04489736087937646 max: 346.256885078628
Time = 0.016

PIMPLE: iteration 1
time step continuity errors : sum local = 1.845702970060185e-08, global = 4.302764378688656e-10, cumulative = 1.381164311089032e-08
time step continuity errors : sum local = 8.828465026446161e-13, global = 1.567029860965556e-14, cumulative = 1.381165878118893e-08
PIMPLE: iteration 2
time step continuity errors : sum local = 1.2433927820538e-08, global = 2.168150150958687e-10, cumulative = 1.40284737962848e-08
time step continuity errors : sum local = 9.070300520772215e-13, global = -4.867223816016008e-15, cumulative = 1.402846892906098e-08
PIMPLE: iteration 3
time step continuity errors : sum local = 6.09884784275138e-09, global = 1.63593133516847e-10, cumulative = 1.419206206257783e-08
time step continuity errors : sum local = 1.043470586868685e-12, global = -3.906293812548773e-14, cumulative = 1.41920229996397e-08
PIMPLE: iteration 4
time step continuity errors : sum local = 6.380613920306951e-09, global = 5.448888956724709e-11, cumulative = 1.424651188920695e-08
time step continuity errors : sum local = 1.034800941274977e-12, global = -1.753463921403769e-14, cumulative = 1.424649435456774e-08
PIMPLE: iteration 5
time step continuity errors : sum local = 2.219258580635844e-08, global = -2.467686457495476e-10, cumulative = 1.399972570881819e-08
time step continuity errors : sum local = 9.252678812860116e-13, global = -6.841665130275104e-14, cumulative = 1.399965729216689e-08
bounding nuTilda, min: -1.624139878600387e-05 max: 0.2536875320287754 average: 0.02252963174935003
PIMPLE: not converged within 5 iterations
ExecutionTime = 8.74 s  ClockTime = 9 s

Courant Number mean: 0.04491094413490766 max: 352.8467509048542
Time = 0.017

PIMPLE: iteration 1
time step continuity errors : sum local = 1.79790051805723e-08, global = 4.490114977680113e-10, cumulative = 1.44486687899349e-08
time step continuity errors : sum local = 9.49720087757588e-13, global = 3.533057867292446e-14, cumulative = 1.444870412051357e-08
PIMPLE: iteration 2
time step continuity errors : sum local = 1.210776400946912e-08, global = 2.439571902679245e-10, cumulative = 1.46926613107815e-08
time step continuity errors : sum local = 9.746677929569689e-13, global = 1.058257673829049e-14, cumulative = 1.469267189335823e-08
PIMPLE: iteration 3
time step continuity errors : sum local = 6.092505771324755e-09, global = 1.673487088493389e-10, cumulative = 1.486002060220757e-08
time step continuity errors : sum local = 9.100296881678059e-13, global = -2.948532504908273e-14, cumulative = 1.485999111688252e-08
PIMPLE: iteration 4
time step continuity errors : sum local = 6.312413949068639e-09, global = 3.982471966058168e-11, cumulative = 1.48998158365431e-08
time step continuity errors : sum local = 1.089983336274968e-12, global = -2.957422951258679e-14, cumulative = 1.489978626231359e-08
PIMPLE: iteration 5
time step continuity errors : sum local = 2.136989982872191e-08, global = -2.873946919842206e-10, cumulative = 1.461239157032937e-08
time step continuity errors : sum local = 1.013751685807752e-12, global = -1.980434406914645e-14, cumulative = 1.46123717659853e-08
bounding nuTilda, min: -3.790628367052201e-05 max: 0.2565408873421363 average: 0.02252413579924474
PIMPLE: not converged within 5 iterations
ExecutionTime = 9.31 s  ClockTime = 10 s

Courant Number mean: 0.04492827601270762 max: 358.8367749575672
Time = 0.018

PIMPLE: iteration 1
time step continuity errors : sum local = 1.742677092747954e-08, global = 4.414528465626107e-10, cumulative = 1.505382461254791e-08
time step continuity errors : sum local = 8.983170849164418e-13, global = 4.260484290501129e-14, cumulative = 1.505386721739082e-08
PIMPLE: iteration 2
time step continuity errors : sum local = 1.171883240942172e-08, global = 2.386761209466666e-10, cumulative = 1.529254333833748e-08
time step continuity errors : sum local = 8.961059653884532e-13, global = 1.537024355478994e-14, cumulative = 1.529255870858104e-08
PIMPLE: iteration 3
time step continuity errors : sum local = 6.049627276044173e-09, global = 1.412960274982859e-10, cumulative = 1.543385473607932e-08
time step continuity errors : sum local = 9.631827636599915e-13, global = -3.313205248793433e-14, cumulative = 1.543382160402684e-08
PIMPLE: iteration 4
time step continuity errors : sum local = 6.211981473198314e-09, global = 8.220513403722753e-12, cumulative = 1.544204211743056e-08
time step continuity errors : sum local = 9.997101461953475e-13, global = -4.215541444714904e-14, cumulative = 1.544199996201611e-08
PIMPLE: iteration 5
time step continuity errors : sum local = 2.072963035796471e-08, global = -3.245015026567722e-10, cumulative = 1.511749845935934e-08
time step continuity errors : sum local = 9.301380134723583e-13, global = 5.264215831738785e-14, cumulative = 1.511755110151766e-08
bounding nuTilda, min: -5.140993293303415e-05 max: 0.2592981251998385 average: 0.02250914230478122
PIMPLE: not converged within 5 iterations
ExecutionTime = 9.83 s  ClockTime = 10 s

Courant Number mean: 0.04494765221728971 max: 364.308927537108
Time = 0.019

PIMPLE: iteration 1
time step continuity errors : sum local = 1.71138075229439e-08, global = 4.376874634926187e-10, cumulative = 1.555523856501028e-08
time step continuity errors : sum local = 8.846582399111146e-13, global = 5.864603508357922e-14, cumulative = 1.555529721104537e-08
PIMPLE: iteration 2
time step continuity errors : sum local = 1.146628224088892e-08, global = 2.401429514972032e-10, cumulative = 1.579544016254257e-08
time step continuity errors : sum local = 9.045002885799978e-13, global = 3.093824394718861e-14, cumulative = 1.579547110078652e-08
PIMPLE: iteration 3
time step continuity errors : sum local = 5.994266381929988e-09, global = 1.292431091407986e-10, cumulative = 1.592471420992732e-08
time step continuity errors : sum local = 1.038772204717367e-12, global = -4.019657379579203e-14, cumulative = 1.592467401335352e-08
PIMPLE: iteration 4
time step continuity errors : sum local = 6.147536801213883e-09, global = -7.64290163298338e-12, cumulative = 1.591703111172054e-08
time step continuity errors : sum local = 1.050935594353501e-12, global = -5.083083059669385e-14, cumulative = 1.591698028088994e-08
PIMPLE: iteration 5
time step continuity errors : sum local = 1.999038284719912e-08, global = -3.516093368208599e-10, cumulative = 1.556537094406908e-08
time step continuity errors : sum local = 1.100818276361834e-12, global = 1.006651681806387e-13, cumulative = 1.556547160923726e-08
bounding nuTilda, min: -6.165765812755814e-05 max: 0.2617609827467249 average: 0.02248248694972611
PIMPLE: not converged within 5 iterations
ExecutionTime = 10.35 s  ClockTime = 11 s

Courant Number mean: 0.04496761647406702 max: 369.2030238072106
Time = 0.02

PIMPLE: iteration 1
time step continuity errors : sum local = 1.672877923388406e-08, global = 4.344172883457404e-10, cumulative = 1.5999888897583e-08
time step continuity errors : sum local = 9.530908878230429e-13, global = 7.399473236147427e-14, cumulative = 1.599996289231536e-08
PIMPLE: iteration 2
time step continuity errors : sum local = 1.116342478194209e-08, global = 2.420129318459855e-10, cumulative = 1.624197582416135e-08
time step continuity errors : sum local = 9.496706066278037e-13, global = 4.079262030241405e-14, cumulative = 1.624201661678165e-08
PIMPLE: iteration 3
time step continuity errors : sum local = 5.822581625268848e-09, global = 1.221462924149258e-10, cumulative = 1.636416290919658e-08
time step continuity errors : sum local = 9.780515317668891e-13, global = -2.558098936869946e-14, cumulative = 1.636413732820721e-08
PIMPLE: iteration 4
time step continuity errors : sum local = 5.907869798469297e-09, global = -2.121116448053659e-11, cumulative = 1.634292616372667e-08
time step continuity errors : sum local = 1.039067951954555e-12, global = -5.637119713400192e-14, cumulative = 1.634286979252954e-08
PIMPLE: iteration 5
time step continuity errors : sum local = 1.932682747558806e-08, global = -3.75364395863174e-10, cumulative = 1.596750539666637e-08
time step continuity errors : sum local = 9.217930896038297e-13, global = 1.010883327632133e-13, cumulative = 1.596760648499913e-08
bounding nuTilda, min: -6.6319146937704e-05 max: 0.2639331005486417 average: 0.02244631629823739
PIMPLE: not converged within 5 iterations
ExecutionTime = 10.86 s  ClockTime = 11 s

Courant Number mean: 0.04498820130583885 max: 373.6591299972198
Time = 0.021

PIMPLE: iteration 1
time step continuity errors : sum local = 1.637573402937244e-08, global = 4.403019593323479e-10, cumulative = 1.640790844433148e-08
time step continuity errors : sum local = 9.481030232841187e-13, global = 9.457454402441951e-14, cumulative = 1.64080030188755e-08
PIMPLE: iteration 2
time step continuity errors : sum local = 1.08973926436731e-08, global = 2.489246127817058e-10, cumulative = 1.665692763165721e-08
time step continuity errors : sum local = 9.886609815729019e-13, global = 6.622715742688617e-14, cumulative = 1.665699385881463e-08
PIMPLE: iteration 3
time step continuity errors : sum local = 5.679879364249644e-09, global = 1.233963763156759e-10, cumulative = 1.678039023513031e-08
time step continuity errors : sum local = 1.04768792550881e-12, global = -1.75094397775378e-14, cumulative = 1.678037272569053e-08
PIMPLE: iteration 4
time step continuity errors : sum local = 5.72469765294232e-09, global = -2.810817426994195e-11, cumulative = 1.675226455142059e-08
time step continuity errors : sum local = 1.020442959818207e-12, global = -5.572710728026477e-14, cumulative = 1.675220882431331e-08
PIMPLE: iteration 5
time step continuity errors : sum local = 1.886069140402382e-08, global = -3.955359411530504e-10, cumulative = 1.635667288316026e-08
time step continuity errors : sum local = 9.626902783129238e-13, global = 1.130005059556571e-13, cumulative = 1.635678588366621e-08
bounding nuTilda, min: -7.141147384021694e-05 max: 0.2657912213406303 average: 0.02239962288889943
PIMPLE: not converged within 5 iterations
ExecutionTime = 11.37 s  ClockTime = 12 s

Courant Number mean: 0.04500875477477808 max: 377.6935763973721
Time = 0.022

PIMPLE: iteration 1
time step continuity errors : sum local = 1.612073218156795e-08, global = 4.470796239028968e-10, cumulative = 1.680386550756911e-08
time step continuity errors : sum local = 1.029393425728039e-12, global = 1.091471605523112e-13, cumulative = 1.680397465472966e-08
PIMPLE: iteration 2
time step continuity errors : sum local = 1.071132089871869e-08, global = 2.527831160779899e-10, cumulative = 1.705675777080765e-08
time step continuity errors : sum local = 1.032597225708796e-12, global = 7.153530991193796e-14, cumulative = 1.705682930611756e-08
PIMPLE: iteration 3
time step continuity errors : sum local = 1.004004928604021e-08, global = 2.352994596111426e-10, cumulative = 1.72921287657287e-08
time step continuity errors : sum local = 1.033560250849613e-12, global = -1.529781787847538e-14, cumulative = 1.729211346791083e-08
PIMPLE: iteration 4
time step continuity errors : sum local = 5.598111108171353e-09, global = -3.629420890549609e-11, cumulative = 1.725581925900533e-08
time step continuity errors : sum local = 1.108855391441492e-12, global = -6.52803188596859e-14, cumulative = 1.725575397868647e-08
PIMPLE: iteration 5
time step continuity errors : sum local = 1.844514212740781e-08, global = -4.15751016652633e-10, cumulative = 1.684000296203384e-08
time step continuity errors : sum local = 1.084106622614556e-12, global = 1.387264543066702e-13, cumulative = 1.684014168848815e-08
bounding nuTilda, min: -7.473030530975183e-05 max: 0.2676246822244104 average: 0.02234505616570416
PIMPLE: not converged within 5 iterations
ExecutionTime = 11.88 s  ClockTime = 12 s

Courant Number mean: 0.04502869668046595 max: 381.4574833200833
Time = 0.023

PIMPLE: iteration 1
time step continuity errors : sum local = 1.589197708776587e-08, global = 4.514212604713865e-10, cumulative = 1.729156294895953e-08
time step continuity errors : sum local = 8.743482095169658e-13, global = 1.113712338574513e-13, cumulative = 1.729167432019339e-08
PIMPLE: iteration 2
time step continuity errors : sum local = 1.053566821646083e-08, global = 2.534731534903321e-10, cumulative = 1.754514747368372e-08
time step continuity errors : sum local = 9.30048540956334e-13, global = 8.606601960089149e-14, cumulative = 1.754523353970332e-08
PIMPLE: iteration 3
time step continuity errors : sum local = 1.005223130082526e-08, global = 2.315333466933283e-10, cumulative = 1.777676688639665e-08
time step continuity errors : sum local = 1.08074464809591e-12, global = -2.170656562593678e-14, cumulative = 1.777674517983102e-08
PIMPLE: iteration 4
time step continuity errors : sum local = 5.496407824073416e-09, global = -4.321056750001265e-11, cumulative = 1.773353461233101e-08
time step continuity errors : sum local = 1.055217292757884e-12, global = -6.232058296173683e-14, cumulative = 1.773347229174805e-08
PIMPLE: iteration 5
time step continuity errors : sum local = 1.799860631479036e-08, global = -4.365259207111479e-10, cumulative = 1.72969463710369e-08
time step continuity errors : sum local = 9.917532014033958e-13, global = 1.254496285134454e-13, cumulative = 1.729707182066541e-08
bounding nuTilda, min: -7.731962928917822e-05 max: 0.2700892498073461 average: 0.0222821995836963
PIMPLE: not converged within 5 iterations
ExecutionTime = 12.41 s  ClockTime = 13 s

Courant Number mean: 0.04504797675502911 max: 384.9698443957317
Time = 0.024

PIMPLE: iteration 1
time step continuity errors : sum local = 1.558255922432174e-08, global = 4.587322374958111e-10, cumulative = 1.775580405816122e-08
time step continuity errors : sum local = 9.636709073502661e-13, global = 1.246622816152398e-13, cumulative = 1.775592872044284e-08
PIMPLE: iteration 2
time step continuity errors : sum local = 1.036561788294617e-08, global = 2.542463607023404e-10, cumulative = 1.801017508114518e-08
time step continuity errors : sum local = 9.7457704098351e-13, global = 8.646137538675017e-14, cumulative = 1.801026154252056e-08
PIMPLE: iteration 3
time step continuity errors : sum local = 9.902351306301152e-09, global = 2.166288849911699e-10, cumulative = 1.822689042751173e-08
time step continuity errors : sum local = 1.072539623073946e-12, global = -3.546295452930977e-14, cumulative = 1.82268549645572e-08
PIMPLE: iteration 4
time step continuity errors : sum local = 5.404998458104955e-09, global = -5.243054793889852e-11, cumulative = 1.81744244166183e-08
time step continuity errors : sum local = 9.955621429512906e-13, global = -6.684680776844824e-14, cumulative = 1.817435756981053e-08
PIMPLE: iteration 5
time step continuity errors : sum local = 1.769585452137105e-08, global = -4.577169164630755e-10, cumulative = 1.771664065334746e-08
time step continuity errors : sum local = 9.831487747020579e-13, global = 1.318747658876763e-13, cumulative = 1.771677252811335e-08
bounding nuTilda, min: -7.599791453160238e-05 max: 0.2722634889358019 average: 0.02221367561703889
PIMPLE: not converged within 5 iterations
ExecutionTime = 12.92 s  ClockTime = 13 s

Courant Number mean: 0.04506671088063532 max: 388.3368807861031
Time = 0.025

PIMPLE: iteration 1
time step continuity errors : sum local = 1.522157553541882e-08, global = 4.578205398494547e-10, cumulative = 1.81745930679628e-08
time step continuity errors : sum local = 1.022377677844463e-12, global = 1.492324640747334e-13, cumulative = 1.817474230042688e-08
PIMPLE: iteration 2
time step continuity errors : sum local = 1.010417180748385e-08, global = 2.494919965212745e-10, cumulative = 1.842423429694815e-08
time step continuity errors : sum local = 9.146835371187359e-13, global = 1.007134773000485e-13, cumulative = 1.842433501042545e-08
PIMPLE: iteration 3
time step continuity errors : sum local = 9.817610047810514e-09, global = 1.82182095614835e-10, cumulative = 1.860651710604029e-08
time step continuity errors : sum local = 1.053017073378975e-12, global = -7.498785762425551e-14, cumulative = 1.860644211818266e-08
PIMPLE: iteration 4
time step continuity errors : sum local = 5.271841660545705e-09, global = -6.383481731780137e-11, cumulative = 1.854260730086486e-08
time step continuity errors : sum local = 9.491661719760931e-13, global = -6.473867811105115e-14, cumulative = 1.854254256218675e-08
PIMPLE: iteration 5
time step continuity errors : sum local = 1.745904762655478e-08, global = -4.82548607349444e-10, cumulative = 1.805999395483731e-08
time step continuity errors : sum local = 9.140862477442e-13, global = 1.170999522443798e-13, cumulative = 1.806011105478955e-08
bounding nuTilda, min: -7.415783219573028e-05 max: 0.2741572196164734 average: 0.02213917476382358
PIMPLE: not converged within 5 iterations
ExecutionTime = 13.43 s  ClockTime = 14 s

Courant Number mean: 0.04508526351641803 max: 391.535960157786
Time = 0.026

PIMPLE: iteration 1
time step continuity errors : sum local = 1.489665289670488e-08, global = 4.733024003226153e-10, cumulative = 1.853341345511217e-08
time step continuity errors : sum local = 9.191203666417762e-13, global = 1.399179832352005e-13, cumulative = 1.85335533730954e-08
PIMPLE: iteration 2
time step continuity errors : sum local = 9.818465935437526e-09, global = 2.633264193077279e-10, cumulative = 1.879687979240313e-08
time step continuity errors : sum local = 9.35289445367538e-13, global = 1.042050878439742e-13, cumulative = 1.879698399749097e-08
PIMPLE: iteration 3
time step continuity errors : sum local = 9.670087504719537e-09, global = 1.909972931900705e-10, cumulative = 1.898798129068104e-08
time step continuity errors : sum local = 1.094234033917361e-12, global = -6.02295969096448e-14, cumulative = 1.898792106108413e-08
PIMPLE: iteration 4
time step continuity errors : sum local = 5.204543125461885e-09, global = -6.644389755718761e-11, cumulative = 1.892147716352694e-08
time step continuity errors : sum local = 9.308030492494802e-13, global = -7.100141157842478e-14, cumulative = 1.892140616211536e-08
PIMPLE: iteration 5
time step continuity errors : sum local = 1.717705952159013e-08, global = -4.990117396088613e-10, cumulative = 1.84223944225065e-08
time step continuity errors : sum local = 9.27156929327551e-13, global = 1.263770568567645e-13, cumulative = 1.842252079956336e-08
bounding nuTilda, min: -6.974730118499076e-05 max: 0.275776860920003 average: 0.02206111087115012
PIMPLE: not converged within 5 iterations
ExecutionTime = 13.94 s  ClockTime = 14 s

Courant Number mean: 0.04510358363009927 max: 394.6323302215206
Time = 0.027

PIMPLE: iteration 1
time step continuity errors : sum local = 1.46014841256651e-08, global = 4.70539350855448e-10, cumulative = 1.889306015041881e-08
time step continuity errors : sum local = 9.825732031781333e-13, global = 1.650184192392671e-13, cumulative = 1.889322516883805e-08
PIMPLE: iteration 2
time step continuity errors : sum local = 9.625309690352817e-09, global = 2.574205687608094e-10, cumulative = 1.915064573759885e-08
time step continuity errors : sum local = 1.072364087210151e-12, global = 1.414265390951168e-13, cumulative = 1.915078716413795e-08
PIMPLE: iteration 3
time step continuity errors : sum local = 9.560926038097274e-09, global = 1.415926736202787e-10, cumulative = 1.929237983775823e-08
time step continuity errors : sum local = 1.003657560742126e-12, global = -9.776506224481506e-14, cumulative = 1.929228207269599e-08
PIMPLE: iteration 4
time step continuity errors : sum local = 5.117910460636054e-09, global = -8.007764478159612e-11, cumulative = 1.921220442791439e-08
time step continuity errors : sum local = 1.114404936261346e-12, global = -8.527154272089474e-14, cumulative = 1.921211915637167e-08
PIMPLE: iteration 5
time step continuity errors : sum local = 1.693668281697209e-08, global = -5.175614646313005e-10, cumulative = 1.869455769174037e-08
time step continuity errors : sum local = 9.012578941376286e-13, global = 1.160194990469328e-13, cumulative = 1.869467371123942e-08
bounding nuTilda, min: -6.472409446226579e-05 max: 0.2771279317567666 average: 0.02197911771260713
PIMPLE: not converged within 5 iterations
ExecutionTime = 14.46 s  ClockTime = 15 s

Courant Number mean: 0.04512180231609255 max: 397.5770808403552
Time = 0.028

PIMPLE: iteration 1
time step continuity errors : sum local = 1.434477488747687e-08, global = 4.585739019258465e-10, cumulative = 1.915324761316526e-08
time step continuity errors : sum local = 9.012798925702307e-13, global = 1.489717380565252e-13, cumulative = 1.915339658490332e-08
PIMPLE: iteration 2
time step continuity errors : sum local = 9.518611681104966e-09, global = 2.439322155238243e-10, cumulative = 1.939732880042714e-08
time step continuity errors : sum local = 9.31640532662483e-13, global = 1.122522325132376e-13, cumulative = 1.939744105265966e-08
PIMPLE: iteration 3
time step continuity errors : sum local = 9.57736152905435e-09, global = 8.467086847044402e-11, cumulative = 1.94821119211301e-08
time step continuity errors : sum local = 1.044556185175172e-12, global = -8.521118942554649e-14, cumulative = 1.948202670994068e-08
PIMPLE: iteration 4
time step continuity errors : sum local = 5.135884894345306e-09, global = -9.37711353900096e-11, cumulative = 1.938825557455067e-08
time step continuity errors : sum local = 1.090462412818851e-12, global = -1.002970878668459e-13, cumulative = 1.93881552774628e-08
PIMPLE: iteration 5
time step continuity errors : sum local = 1.67647248629598e-08, global = -5.430936908161342e-10, cumulative = 1.884506158664667e-08
time step continuity errors : sum local = 8.99636328020011e-13, global = 1.227352478118749e-13, cumulative = 1.884518432189448e-08
bounding nuTilda, min: -5.880083619067328e-05 max: 0.2782178705393418 average: 0.02189515624619733
PIMPLE: not converged within 5 iterations
ExecutionTime = 14.99 s  ClockTime = 15 s

Courant Number mean: 0.04513909101638886 max: 400.4197257914842
Time = 0.029

PIMPLE: iteration 1
time step continuity errors : sum local = 1.418140209516235e-08, global = 4.759484143307534e-10, cumulative = 1.932113273622523e-08
time step continuity errors : sum local = 9.505461833379788e-13, global = 1.739476237738447e-13, cumulative = 1.9321306683849e-08
PIMPLE: iteration 2
time step continuity errors : sum local = 9.353462229831105e-09, global = 2.671744664121577e-10, cumulative = 1.958848115026116e-08
time step continuity errors : sum local = 1.034277740974363e-12, global = 1.574322528879173e-13, cumulative = 1.958863858251405e-08
PIMPLE: iteration 3
time step continuity errors : sum local = 9.403486241251359e-09, global = 1.216555275167354e-10, cumulative = 1.971029411003078e-08
time step continuity errors : sum local = 9.566583726942489e-13, global = -1.011788931871037e-13, cumulative = 1.97101929311376e-08
PIMPLE: iteration 4
time step continuity errors : sum local = 5.073158144297443e-09, global = -9.261692600259498e-11, cumulative = 1.9617576005135e-08
time step continuity errors : sum local = 1.057634762867011e-12, global = -8.988996575802852e-14, cumulative = 1.961748611516925e-08
PIMPLE: iteration 5
time step continuity errors : sum local = 1.66248704056905e-08, global = -5.71360689395751e-10, cumulative = 1.90461254257735e-08
time step continuity errors : sum local = 1.059117721231366e-12, global = 1.355200706822818e-13, cumulative = 1.904626094584418e-08
bounding nuTilda, min: -5.672636432923637e-05 max: 0.2800634411527517 average: 0.02180893040050732
PIMPLE: not converged within 5 iterations
ExecutionTime = 15.51 s  ClockTime = 16 s

Courant Number mean: 0.04515587276959127 max: 403.1161595595374
Time = 0.03

PIMPLE: iteration 1
time step continuity errors : sum local = 1.407970648131125e-08, global = 5.109236971571668e-10, cumulative = 1.955718464300135e-08
time step continuity errors : sum local = 1.042274138892854e-12, global = 1.921554892142428e-13, cumulative = 1.955737679849056e-08
PIMPLE: iteration 2
time step continuity errors : sum local = 9.124505198181832e-09, global = 3.005706750633776e-10, cumulative = 1.985794747355394e-08
time step continuity errors : sum local = 1.052105709119038e-12, global = 1.646187173036431e-13, cumulative = 1.985811209227124e-08
PIMPLE: iteration 3
time step continuity errors : sum local = 9.148046211159848e-09, global = 1.813064746698893e-10, cumulative = 2.003941856694113e-08
time step continuity errors : sum local = 1.092374955827926e-12, global = -7.470065995231566e-14, cumulative = 2.003934386628118e-08
PIMPLE: iteration 4
time step continuity errors : sum local = 4.972943449952101e-09, global = -8.688566058389918e-11, cumulative = 1.995245820569728e-08
time step continuity errors : sum local = 1.057955130027863e-12, global = -9.521913364518279e-14, cumulative = 1.995236298656363e-08
PIMPLE: iteration 5
time step continuity errors : sum local = 1.647556538025473e-08, global = -5.895541555410695e-10, cumulative = 1.936280883102257e-08
time step continuity errors : sum local = 1.037278615573405e-12, global = 1.403300877405935e-13, cumulative = 1.936294916111031e-08
bounding nuTilda, min: -5.123331361270185e-05 max: 0.2821120218528714 average: 0.02172193074440962
PIMPLE: not converged within 5 iterations
ExecutionTime = 16.01 s  ClockTime = 16 s

Courant Number mean: 0.04517236575291726 max: 405.7208871571241
Time = 0.031

PIMPLE: iteration 1
time step continuity errors : sum local = 1.402966064386333e-08, global = 5.188269351883125e-10, cumulative = 1.988177609629862e-08
time step continuity errors : sum local = 9.133600280481859e-13, global = 1.806986528495864e-13, cumulative = 1.988195679495147e-08
PIMPLE: iteration 2
time step continuity errors : sum local = 8.988845934417512e-09, global = 2.936533176431212e-10, cumulative = 2.017561011259459e-08
time step continuity errors : sum local = 9.772832650415342e-13, global = 1.715296057112044e-13, cumulative = 2.01757816422003e-08
PIMPLE: iteration 3
time step continuity errors : sum local = 9.035239362491895e-09, global = 1.185770571464759e-10, cumulative = 2.029435869934678e-08
time step continuity errors : sum local = 9.107432715617914e-13, global = -9.542977838416579e-14, cumulative = 2.02942632695684e-08
PIMPLE: iteration 4
time step continuity errors : sum local = 4.922595160307288e-09, global = -9.763944038924206e-11, cumulative = 2.019662382917915e-08
time step continuity errors : sum local = 1.014663003011313e-12, global = -9.255363137240214e-14, cumulative = 2.019653127554778e-08
PIMPLE: iteration 5
time step continuity errors : sum local = 1.63573031193874e-08, global = -6.046109052073506e-10, cumulative = 1.959192037034043e-08
time step continuity errors : sum local = 9.368242302604887e-13, global = 1.217247346461938e-13, cumulative = 1.959204209507508e-08
bounding nuTilda, min: -5.279545483607081e-05 max: 0.2838966494867333 average: 0.02163382158952422
PIMPLE: not converged within 5 iterations
ExecutionTime = 16.53 s  ClockTime = 17 s

Courant Number mean: 0.04518831059467898 max: 408.1920064608984
Time = 0.032

PIMPLE: iteration 1
time step continuity errors : sum local = 1.393199914793464e-08, global = 5.157814835848127e-10, cumulative = 2.010782357865989e-08
time step continuity errors : sum local = 1.002571045843467e-12, global = 1.926920325880016e-13, cumulative = 2.010801627069248e-08
PIMPLE: iteration 2
time step continuity errors : sum local = 8.872436595385414e-09, global = 2.775341547908347e-10, cumulative = 2.038555042548331e-08
time step continuity errors : sum local = 1.013790368197899e-12, global = 1.654713478949733e-13, cumulative = 2.038571589683121e-08
PIMPLE: iteration 3
time step continuity errors : sum local = 8.874015482512718e-09, global = 4.67609187254833e-11, cumulative = 2.043247681555669e-08
time step continuity errors : sum local = 1.044883329822347e-12, global = -8.663571893887445e-14, cumulative = 2.043239017983775e-08
PIMPLE: iteration 4
time step continuity errors : sum local = 4.853299533247072e-09, global = -1.054236688069657e-10, cumulative = 2.032696651103078e-08
time step continuity errors : sum local = 9.866333701566807e-13, global = -1.040454198409068e-13, cumulative = 2.032686246561094e-08
PIMPLE: iteration 5
time step continuity errors : sum local = 1.621773916645792e-08, global = -6.156079597065609e-10, cumulative = 1.971125450590438e-08
time step continuity errors : sum local = 9.180748901464458e-13, global = 1.250812434874196e-13, cumulative = 1.971137958714786e-08
bounding nuTilda, min: -4.625801843721771e-05 max: 0.2854059421995709 average: 0.02154593560939882
PIMPLE: not converged within 5 iterations
ExecutionTime = 17.04 s  ClockTime = 17 s

Courant Number mean: 0.04520369635112795 max: 410.5971162461902
Time = 0.033

PIMPLE: iteration 1
time step continuity errors : sum local = 1.376521113851909e-08, global = 5.19677281633971e-10, cumulative = 2.023105686878183e-08
time step continuity errors : sum local = 8.707232147135567e-13, global = 1.767399623092991e-13, cumulative = 2.023123360874414e-08
PIMPLE: iteration 2
time step continuity errors : sum local = 8.742074771086185e-09, global = 2.802008956468659e-10, cumulative = 2.051143450439101e-08
time step continuity errors : sum local = 9.144598411493383e-13, global = 1.68712384931045e-13, cumulative = 2.051160321677594e-08
PIMPLE: iteration 3
time step continuity errors : sum local = 8.629254428278149e-09, global = 2.959183576713495e-11, cumulative = 2.054119505254307e-08
time step continuity errors : sum local = 1.026107701335283e-12, global = -1.063503060756799e-13, cumulative = 2.0541088702237e-08
PIMPLE: iteration 4
time step continuity errors : sum local = 4.801007878066137e-09, global = -1.054895663235121e-10, cumulative = 2.043559913591348e-08
time step continuity errors : sum local = 9.614762369359358e-13, global = -9.826607859079308e-14, cumulative = 2.043550086983489e-08
PIMPLE: iteration 5
time step continuity errors : sum local = 1.615872070055628e-08, global = -6.257428945303875e-10, cumulative = 1.980975797530451e-08
time step continuity errors : sum local = 1.078478718137869e-12, global = 1.381983749051522e-13, cumulative = 1.980989617367941e-08
bounding nuTilda, min: -4.787825193224861e-05 max: 0.2866348404129092 average: 0.02145813504997435
PIMPLE: not converged within 5 iterations
ExecutionTime = 17.53 s  ClockTime = 18 s

Courant Number mean: 0.04521826717915417 max: 412.8982100816245
Time = 0.034

PIMPLE: iteration 1
time step continuity errors : sum local = 1.362750978163199e-08, global = 5.19155578128406e-10, cumulative = 2.032905175180782e-08
time step continuity errors : sum local = 9.684565409083441e-13, global = 1.894005980676936e-13, cumulative = 2.032924115240588e-08
PIMPLE: iteration 2
time step continuity errors : sum local = 8.625382556222856e-09, global = 2.80147732076581e-10, cumulative = 2.060938888448246e-08
time step continuity errors : sum local = 9.532363961343005e-13, global = 1.693565275339316e-13, cumulative = 2.060955824101e-08
PIMPLE: iteration 3
time step continuity errors : sum local = 8.339691980154116e-09, global = 5.950528154174144e-12, cumulative = 2.061550876916417e-08
time step continuity errors : sum local = 1.008349914089437e-12, global = -8.235806622698052e-14, cumulative = 2.061542641109794e-08
PIMPLE: iteration 4
time step continuity errors : sum local = 4.717971108968419e-09, global = -1.063254326622881e-10, cumulative = 2.050910097843566e-08
time step continuity errors : sum local = 9.504353192515704e-13, global = -1.039943506034063e-13, cumulative = 2.050899698408505e-08
PIMPLE: iteration 5
time step continuity errors : sum local = 1.602606573734303e-08, global = -6.317341186338415e-10, cumulative = 1.987726286545121e-08
time step continuity errors : sum local = 1.048353471625467e-12, global = 1.391591153462795e-13, cumulative = 1.987740202456656e-08
bounding nuTilda, min: -3.810019810562199e-05 max: 0.2875946302084485 average: 0.02137156226754979
PIMPLE: not converged within 5 iterations
ExecutionTime = 18.02 s  ClockTime = 18 s

Courant Number mean: 0.04523189899575724 max: 415.143395973998
Time = 0.035

PIMPLE: iteration 1
time step continuity errors : sum local = 1.35075159711192e-08, global = 5.117704138453425e-10, cumulative = 2.03891724384119e-08
time step continuity errors : sum local = 1.011108163977173e-12, global = 2.00554065250448e-13, cumulative = 2.038937299247715e-08
PIMPLE: iteration 2
time step continuity errors : sum local = 8.572213332398917e-09, global = 2.756304124024655e-10, cumulative = 2.066500340487961e-08
time step continuity errors : sum local = 1.031276623654419e-12, global = 1.962881636085595e-13, cumulative = 2.066519969304322e-08
PIMPLE: iteration 3
time step continuity errors : sum local = 8.207000652526878e-09, global = -1.579428469129076e-11, cumulative = 2.064940540835193e-08
time step continuity errors : sum local = 9.459555913560133e-13, global = -9.473374687489222e-14, cumulative = 2.064931067460506e-08
PIMPLE: iteration 4
time step continuity errors : sum local = 4.652685854756932e-09, global = -1.059375426119701e-10, cumulative = 2.054337313199309e-08
time step continuity errors : sum local = 9.325302454063638e-13, global = -1.000687015418134e-13, cumulative = 2.054327306329155e-08
PIMPLE: iteration 5
time step continuity errors : sum local = 1.596533576859539e-08, global = -6.358590192824941e-10, cumulative = 1.990741404400905e-08
time step continuity errors : sum local = 9.817874788765383e-13, global = 1.255616956073614e-13, cumulative = 1.990753960570466e-08
bounding nuTilda, min: -3.802855120638114e-05 max: 0.2882963790569599 average: 0.02128592776320577
PIMPLE: not converged within 5 iterations
ExecutionTime = 18.53 s  ClockTime = 19 s

Courant Number mean: 0.0452450061367097 max: 417.2684034998509
Time = 0.036

PIMPLE: iteration 1
time step continuity errors : sum local = 1.328963262278493e-08, global = 4.986746244702844e-10, cumulative = 2.040621423017495e-08
time step continuity errors : sum local = 9.321718375461021e-13, global = 1.801317025859847e-13, cumulative = 2.040639436187753e-08
PIMPLE: iteration 2
time step continuity errors : sum local = 8.47924959495328e-09, global = 2.645433057989726e-10, cumulative = 2.067093766767651e-08
time step continuity errors : sum local = 8.962143264274783e-13, global = 1.667311637077132e-13, cumulative = 2.067110439884021e-08
PIMPLE: iteration 3
time step continuity errors : sum local = 8.124589124635116e-09, global = -4.563693374636557e-11, cumulative = 2.062546746509385e-08
time step continuity errors : sum local = 9.694889113348019e-13, global = -7.782968455065873e-14, cumulative = 2.06253896354093e-08
PIMPLE: iteration 4
time step continuity errors : sum local = 4.575772517646914e-09, global = -1.071699231985833e-10, cumulative = 2.051821971221072e-08
time step continuity errors : sum local = 9.112230671888569e-13, global = -1.035948245304878e-13, cumulative = 2.051811611738619e-08
PIMPLE: iteration 5
time step continuity errors : sum local = 1.583762421593343e-08, global = -6.385398701320012e-10, cumulative = 1.987957624725419e-08
time step continuity errors : sum local = 9.315348065416421e-13, global = 1.225008943604195e-13, cumulative = 1.987969874814855e-08
bounding nuTilda, min: -3.54639500095397e-05 max: 0.2910664923567933 average: 0.02120212341914036
PIMPLE: not converged within 5 iterations
ExecutionTime = 19.04 s  ClockTime = 19 s

Courant Number mean: 0.04525717596037309 max: 419.3184648941202
Time = 0.037

PIMPLE: iteration 1
time step continuity errors : sum local = 1.302727138973731e-08, global = 4.873500306445308e-10, cumulative = 2.036704877879308e-08
time step continuity errors : sum local = 9.515783064397092e-13, global = 1.847493434005671e-13, cumulative = 2.036723352813648e-08
PIMPLE: iteration 2
time step continuity errors : sum local = 8.32690676151933e-09, global = 2.663885615175617e-10, cumulative = 2.063362208965404e-08
time step continuity errors : sum local = 9.463782451960826e-13, global = 1.855704331421524e-13, cumulative = 2.063380766008718e-08
PIMPLE: iteration 3
time step continuity errors : sum local = 8.018312374533875e-09, global = -4.334847689880503e-11, cumulative = 2.059045918318838e-08
time step continuity errors : sum local = 1.092202725696899e-12, global = -9.773251047731691e-14, cumulative = 2.05903614506779e-08
PIMPLE: iteration 4
time step continuity errors : sum local = 4.481517348517793e-09, global = -1.046608243247151e-10, cumulative = 2.048570062635318e-08
time step continuity errors : sum local = 1.106605922152616e-12, global = -1.191996895096292e-13, cumulative = 2.048558142666367e-08
PIMPLE: iteration 5
time step continuity errors : sum local = 1.57222871863313e-08, global = -6.404819279454879e-10, cumulative = 1.984509949871818e-08
time step continuity errors : sum local = 9.956095232508266e-13, global = 1.273563287440662e-13, cumulative = 1.984522685504693e-08
bounding nuTilda, min: -3.36866199061087e-05 max: 0.2936860288413506 average: 0.02111994174372297
PIMPLE: not converged within 5 iterations
ExecutionTime = 19.55 s  ClockTime = 20 s

Courant Number mean: 0.04526886057577328 max: 421.2465695559
Time = 0.038

PIMPLE: iteration 1
time step continuity errors : sum local = 1.282689531457791e-08, global = 4.774586938867741e-10, cumulative = 2.032268554893371e-08
time step continuity errors : sum local = 8.706160693210824e-13, global = 1.654651277795303e-13, cumulative = 2.032285101406149e-08
PIMPLE: iteration 2
time step continuity errors : sum local = 8.19222240877157e-09, global = 2.67312457388826e-10, cumulative = 2.059016347145031e-08
time step continuity errors : sum local = 1.003942353828875e-12, global = 1.892038071616976e-13, cumulative = 2.059035267525748e-08
PIMPLE: iteration 3
time step continuity errors : sum local = 7.905665952776375e-09, global = -4.310203687315913e-11, cumulative = 2.054725063838432e-08
time step continuity errors : sum local = 9.494927547474337e-13, global = -7.117670636003667e-14, cumulative = 2.054717946167796e-08
PIMPLE: iteration 4
time step continuity errors : sum local = 4.392221710566381e-09, global = -1.042725732877034e-10, cumulative = 2.044290688839025e-08
time step continuity errors : sum local = 1.053855329513426e-12, global = -1.16909068697596e-13, cumulative = 2.044278997932156e-08
PIMPLE: iteration 5
time step continuity errors : sum local = 1.562095277621706e-08, global = -6.410377817100659e-10, cumulative = 1.980175219761149e-08
time step continuity errors : sum local = 9.344434585900951e-13, global = 1.223337810946472e-13, cumulative = 1.980187453139259e-08
bounding nuTilda, min: -2.353243237375827e-05 max: 0.295946499979626 average: 0.02104006178897905
PIMPLE: not converged within 5 iterations
ExecutionTime = 20.03 s  ClockTime = 20 s

Courant Number mean: 0.04527920961046811 max: 423.088547148672
Time = 0.039

PIMPLE: iteration 1
time step continuity errors : sum local = 1.268257601848783e-08, global = 4.743926762314257e-10, cumulative = 2.027626720762401e-08
time step continuity errors : sum local = 8.761171926250028e-13, global = 1.657489521079996e-13, cumulative = 2.027643295657612e-08
PIMPLE: iteration 2
time step continuity errors : sum local = 8.092576809753871e-09, global = 2.796719917967701e-10, cumulative = 2.055610494837289e-08
time step continuity errors : sum local = 1.059043678904486e-12, global = 2.017342426986277e-13, cumulative = 2.055630668261559e-08
PIMPLE: iteration 3
time step continuity errors : sum local = 7.82517434894468e-09, global = -2.712864664481334e-11, cumulative = 2.052917803597077e-08
time step continuity errors : sum local = 1.028758089372323e-12, global = -8.290297249101453e-14, cumulative = 2.052909513299828e-08
PIMPLE: iteration 4
time step continuity errors : sum local = 4.36593200884741e-09, global = -1.030387006869616e-10, cumulative = 2.042605643231132e-08
time step continuity errors : sum local = 1.018741469962933e-12, global = -1.103247958245555e-13, cumulative = 2.04259461075155e-08
PIMPLE: iteration 5
time step continuity errors : sum local = 1.561117837220779e-08, global = -6.418766241541132e-10, cumulative = 1.978406948336138e-08
time step continuity errors : sum local = 1.056644556003287e-12, global = 1.331603166632544e-13, cumulative = 1.978420264367805e-08
bounding nuTilda, min: -1.993459652138423e-05 max: 0.2978551881130467 average: 0.02096229289113856
PIMPLE: not converged within 5 iterations
ExecutionTime = 20.51 s  ClockTime = 21 s

Courant Number mean: 0.0452884886331549 max: 424.7923720171935
Time = 0.04

PIMPLE: iteration 1
time step continuity errors : sum local = 1.256461834493359e-08, global = 4.697821783293434e-10, cumulative = 2.025398482200739e-08
time step continuity errors : sum local = 9.81817990014707e-13, global = 1.782813601558875e-13, cumulative = 2.025416310336755e-08
PIMPLE: iteration 2
time step continuity errors : sum local = 7.979775338517891e-09, global = 2.890406922026472e-10, cumulative = 2.054320379557019e-08
time step continuity errors : sum local = 9.506756508799855e-13, global = 1.726304070926392e-13, cumulative = 2.054337642597728e-08
PIMPLE: iteration 3
time step continuity errors : sum local = 7.734307682222539e-09, global = -2.124793759971644e-11, cumulative = 2.052212848837757e-08
time step continuity errors : sum local = 8.960244388039964e-13, global = -6.066970661218019e-14, cumulative = 2.052206781867096e-08
PIMPLE: iteration 4
time step continuity errors : sum local = 4.339736865971073e-09, global = -1.041198776810314e-10, cumulative = 2.041794794098993e-08
time step continuity errors : sum local = 9.852755087557131e-13, global = -1.077116437808401e-13, cumulative = 2.041784022934614e-08
PIMPLE: iteration 5
time step continuity errors : sum local = 1.559331859553339e-08, global = -6.390213373069028e-10, cumulative = 1.977881889203924e-08
time step continuity errors : sum local = 9.740485700365234e-13, global = 1.25173243233706e-13, cumulative = 1.977894406528248e-08
bounding nuTilda, min: -1.629203133446306e-05 max: 0.2994224192589981 average: 0.02088711455582665
PIMPLE: not converged within 5 iterations
ExecutionTime = 20.99 s  ClockTime = 21 s

Courant Number mean: 0.04529707135699414 max: 426.4203738771114
Time = 0.041

PIMPLE: iteration 1
time step continuity errors : sum local = 1.254255653476078e-08, global = 4.580883897994278e-10, cumulative = 2.023703245508191e-08
time step continuity errors : sum local = 9.605016876374497e-13, global = 1.728656678943247e-13, cumulative = 2.02372053207498e-08
PIMPLE: iteration 2
time step continuity errors : sum local = 1.509399902765132e-08, global = 4.922542741916703e-10, cumulative = 2.072945959494147e-08
time step continuity errors : sum local = 1.005368657617581e-12, global = 1.826145180592912e-13, cumulative = 2.072964220945953e-08
PIMPLE: iteration 3
time step continuity errors : sum local = 7.684376052588016e-09, global = -4.393748704588582e-11, cumulative = 2.068570472241364e-08
time step continuity errors : sum local = 9.403971217288117e-13, global = -7.03685650279766e-14, cumulative = 2.068563435384862e-08
PIMPLE: iteration 4
time step continuity errors : sum local = 4.278360179000317e-09, global = -1.095205849927722e-10, cumulative = 2.057611376885584e-08
time step continuity errors : sum local = 9.541212218117338e-13, global = -1.042441026092308e-13, cumulative = 2.057600952475323e-08
PIMPLE: iteration 5
time step continuity errors : sum local = 1.56849109158095e-08, global = -6.409542928804886e-10, cumulative = 1.993505523187275e-08
time step continuity errors : sum local = 1.108025074179793e-12, global = 1.366702233735653e-13, cumulative = 1.993519190209612e-08
PIMPLE: not converged within 5 iterations
ExecutionTime = 21.47 s  ClockTime = 22 s

Courant Number mean: 0.04530468329412591 max: 427.9416941632214
Time = 0.042

PIMPLE: iteration 1
time step continuity errors : sum local = 1.258660220165022e-08, global = 4.594779500178499e-10, cumulative = 2.039466985211397e-08
time step continuity errors : sum local = 8.956813034210514e-13, global = 1.564278219383314e-13, cumulative = 2.039482627993591e-08
PIMPLE: iteration 2
time step continuity errors : sum local = 7.947358505880371e-09, global = 2.989957170555645e-10, cumulative = 2.069382199699147e-08
time step continuity errors : sum local = 1.072547323127438e-12, global = 1.83650024355269e-13, cumulative = 2.069400564701583e-08
PIMPLE: iteration 3
time step continuity errors : sum local = 7.619103089706179e-09, global = -2.002440510274513e-11, cumulative = 2.067398124191308e-08
time step continuity errors : sum local = 1.098379634144422e-12, global = -6.463960988133579e-14, cumulative = 2.06739166023032e-08
PIMPLE: iteration 4
time step continuity errors : sum local = 4.224554734516227e-09, global = -1.057002165863237e-10, cumulative = 2.056821638571688e-08
time step continuity errors : sum local = 9.217745309565036e-13, global = -9.995815941769637e-14, cumulative = 2.056811642755746e-08
PIMPLE: iteration 5
time step continuity errors : sum local = 1.56981537098507e-08, global = -6.354116540862045e-10, cumulative = 1.993270477347126e-08
time step continuity errors : sum local = 1.021975628961818e-12, global = 1.273713608161465e-13, cumulative = 1.993283214483208e-08
PIMPLE: not converged within 5 iterations
ExecutionTime = 21.97 s  ClockTime = 22 s

Courant Number mean: 0.04531149183191942 max: 429.4002980373721
Time = 0.043

PIMPLE: iteration 1
time step continuity errors : sum local = 1.260200615925689e-08, global = 4.511916145140314e-10, cumulative = 2.038402375934611e-08
time step continuity errors : sum local = 1.048922298432946e-12, global = 1.776316724420701e-13, cumulative = 2.038420139101855e-08
PIMPLE: iteration 2
time step continuity errors : sum local = 7.941689105480215e-09, global = 2.988210569015828e-10, cumulative = 2.068302244792013e-08
time step continuity errors : sum local = 1.076167663398044e-12, global = 1.824616915508441e-13, cumulative = 2.068320490961168e-08
PIMPLE: iteration 3
time step continuity errors : sum local = 7.556775021801436e-09, global = -4.139630590088089e-11, cumulative = 2.06418086037108e-08
time step continuity errors : sum local = 1.110221425358681e-12, global = -6.899675572290118e-14, cumulative = 2.064173960695508e-08
PIMPLE: iteration 4
time step continuity errors : sum local = 4.184002225333815e-09, global = -1.108798529361899e-10, cumulative = 2.053085975401889e-08
time step continuity errors : sum local = 1.118866331576532e-12, global = -1.168602440594615e-13, cumulative = 2.053074289377483e-08
PIMPLE: iteration 5
time step continuity errors : sum local = 1.573391439068171e-08, global = -6.341831958413511e-10, cumulative = 1.989655969793348e-08
time step continuity errors : sum local = 9.391608152955814e-13, global = 1.155344270216663e-13, cumulative = 1.98966752323605e-08
PIMPLE: not converged within 5 iterations
ExecutionTime = 22.48 s  ClockTime = 23 s

Courant Number mean: 0.04531750671057542 max: 430.748898472736
Time = 0.044

PIMPLE: iteration 1
time step continuity errors : sum local = 1.262316692496538e-08, global = 4.459094742323257e-10, cumulative = 2.034258470659283e-08
time step continuity errors : sum local = 9.666893159082864e-13, global = 1.582190602556915e-13, cumulative = 2.034274292565309e-08
PIMPLE: iteration 2
time step continuity errors : sum local = 8.012556675618588e-09, global = 3.060197381843831e-10, cumulative = 2.064876266383747e-08
time step continuity errors : sum local = 9.695692858949666e-13, global = 1.561162103942528e-13, cumulative = 2.064891878004786e-08
PIMPLE: iteration 3
time step continuity errors : sum local = 7.468062255268648e-09, global = -4.27188988058429e-11, cumulative = 2.060619988124202e-08
time step continuity errors : sum local = 1.017388793902916e-12, global = -5.247462442316492e-14, cumulative = 2.06061474066176e-08
PIMPLE: iteration 4
time step continuity errors : sum local = 4.124711811231685e-09, global = -1.114913989490014e-10, cumulative = 2.04946560076686e-08
time step continuity errors : sum local = 1.086016875558781e-12, global = -1.127202100777843e-13, cumulative = 2.049454328745852e-08
PIMPLE: iteration 5
time step continuity errors : sum local = 1.56798972241845e-08, global = -6.273338828723472e-10, cumulative = 1.986720940458617e-08
time step continuity errors : sum local = 9.962813547240705e-13, global = 1.224277752966858e-13, cumulative = 1.986733183236147e-08
PIMPLE: not converged within 5 iterations
ExecutionTime = 22.98 s  ClockTime = 23 s

Courant Number mean: 0.04532345211267022 max: 432.0483404704801
Time = 0.045

PIMPLE: iteration 1
time step continuity errors : sum local = 1.265046108649897e-08, global = 4.264853710687618e-10, cumulative = 2.029381720343023e-08
time step continuity errors : sum local = 8.988098548715798e-13, global = 1.441121341685749e-13, cumulative = 2.02939613155644e-08
PIMPLE: iteration 2
time step continuity errors : sum local = 8.033505010258559e-09, global = 2.844944012972432e-10, cumulative = 2.057845571686164e-08
time step continuity errors : sum local = 9.303682295075287e-13, global = 1.482649653697472e-13, cumulative = 2.057860398182701e-08
PIMPLE: iteration 3
time step continuity errors : sum local = 7.425714850509579e-09, global = -6.856668039522346e-11, cumulative = 2.051003730143179e-08
time step continuity errors : sum local = 1.044846854858707e-12, global = -5.684693217801495e-14, cumulative = 2.050998045449961e-08
PIMPLE: iteration 4
time step continuity errors : sum local = 4.069076702130765e-09, global = -1.14692176375242e-10, cumulative = 2.039528827812437e-08
time step continuity errors : sum local = 1.035976863804486e-12, global = -1.068233609079264e-13, cumulative = 2.039518145476346e-08
PIMPLE: iteration 5
time step continuity errors : sum local = 1.566293069495917e-08, global = -6.264481645384162e-10, cumulative = 1.976873329022505e-08
time step continuity errors : sum local = 9.278887565105864e-13, global = 1.118777755258864e-13, cumulative = 1.976884516800057e-08
PIMPLE: not converged within 5 iterations
ExecutionTime = 23.47 s  ClockTime = 24 s

Courant Number mean: 0.04532897063745004 max: 433.2575963114915
Time = 0.046

PIMPLE: iteration 1
time step continuity errors : sum local = 1.264482103637912e-08, global = 4.323712392997827e-10, cumulative = 2.020121640730036e-08
time step continuity errors : sum local = 1.013323430245343e-12, global = 1.5378119691621e-13, cumulative = 2.020137018849727e-08
PIMPLE: iteration 2
time step continuity errors : sum local = 8.130917962659403e-09, global = 3.130195171675516e-10, cumulative = 2.051438970566483e-08
time step continuity errors : sum local = 1.032332893869224e-12, global = 1.533264509978191e-13, cumulative = 2.051454303211582e-08
PIMPLE: iteration 3
time step continuity errors : sum local = 7.375540938031134e-09, global = -3.470361984046678e-11, cumulative = 2.047983941227535e-08
time step continuity errors : sum local = 1.010567600295427e-12, global = -4.058053849384101e-14, cumulative = 2.047979883173686e-08
PIMPLE: iteration 4
time step continuity errors : sum local = 4.006341341515617e-09, global = -1.101925763352297e-10, cumulative = 2.036960625540163e-08
time step continuity errors : sum local = 1.009008493188462e-12, global = -1.006103526255815e-13, cumulative = 2.0369505645049e-08
PIMPLE: iteration 5
time step continuity errors : sum local = 1.554024734922754e-08, global = -6.179147336868098e-10, cumulative = 1.97515909113622e-08
time step continuity errors : sum local = 1.062474866234355e-12, global = 1.242503493645946e-13, cumulative = 1.975171516171156e-08
PIMPLE: not converged within 5 iterations
ExecutionTime = 23.97 s  ClockTime = 24 s

Courant Number mean: 0.0453346943863683 max: 434.4128199332523
Time = 0.047

PIMPLE: iteration 1
time step continuity errors : sum local = 1.252469155298377e-08, global = 4.254594546214934e-10, cumulative = 2.017717461633305e-08
time step continuity errors : sum local = 9.358779734744422e-13, global = 1.373706778271445e-13, cumulative = 2.017731198701088e-08
PIMPLE: iteration 2
time step continuity errors : sum local = 8.141443155522175e-09, global = 3.15860067750566e-10, cumulative = 2.049317205476145e-08
time step continuity errors : sum local = 9.762704358532663e-13, global = 1.418000058694141e-13, cumulative = 2.049331385476732e-08
PIMPLE: iteration 3
time step continuity errors : sum local = 7.273075886483493e-09, global = -2.563218151394836e-11, cumulative = 2.046768167325337e-08
time step continuity errors : sum local = 1.028508134979288e-12, global = -3.674985057665567e-14, cumulative = 2.046764492340279e-08
PIMPLE: iteration 4
time step continuity errors : sum local = 3.96144850955515e-09, global = -1.108377563564129e-10, cumulative = 2.035680716704638e-08
time step continuity errors : sum local = 9.751459873986397e-13, global = -9.426918947597772e-14, cumulative = 2.03567128978569e-08
PIMPLE: iteration 5
time step continuity errors : sum local = 1.5417371756043e-08, global = -6.107882910001899e-10, cumulative = 1.974592460685671e-08
time step continuity errors : sum local = 9.882743461453875e-13, global = 1.146758278552992e-13, cumulative = 1.974603928268457e-08
PIMPLE: not converged within 5 iterations
ExecutionTime = 24.44 s  ClockTime = 25 s

Courant Number mean: 0.04534064095207894 max: 435.4610535973474
Time = 0.048

PIMPLE: iteration 1
time step continuity errors : sum local = 1.245465092902909e-08, global = 4.155403526421943e-10, cumulative = 2.016157963532676e-08
time step continuity errors : sum local = 1.048805389396863e-12, global = 1.438241420473247e-13, cumulative = 2.016172345946881e-08
PIMPLE: iteration 2
time step continuity errors : sum local = 8.149158475613364e-09, global = 3.086638233367925e-10, cumulative = 2.04703872828056e-08
time step continuity errors : sum local = 1.081420770003511e-12, global = 1.453426657646667e-13, cumulative = 2.047053262547136e-08
PIMPLE: iteration 3
time step continuity errors : sum local = 7.278590274769813e-09, global = -5.420115830968858e-11, cumulative = 2.041633146716167e-08
time step continuity errors : sum local = 9.688861314614776e-13, global = -3.350788898971518e-14, cumulative = 2.041629795927269e-08
PIMPLE: iteration 4
time step continuity errors : sum local = 3.912825991473689e-09, global = -1.160311126992414e-10, cumulative = 2.030026684657344e-08
time step continuity errors : sum local = 9.337375837539824e-13, global = -9.034621185025001e-14, cumulative = 2.030017650036159e-08
[...]
PIMPLE: iteration 4
time step continuity errors : sum local = 3.962966208409626e-09, global = -2.890286739773095e-10, cumulative = -1.197058777503137e-06
time step continuity errors : sum local = 1.000833666381692e-12, global = -6.019976386625977e-14, cumulative = -1.197058837702901e-06
PIMPLE: iteration 5
time step continuity errors : sum local = 1.494532162934502e-08, global = 8.877299664632129e-10, cumulative = -1.196171107736438e-06
time step continuity errors : sum local = 1.139201922033554e-12, global = 4.374291934610619e-14, cumulative = -1.196171063993518e-06
PIMPLE: not converged within 5 iterations
ExecutionTime = 458.92 s  ClockTime = 459 s

Courant Number mean: 0.04601342543141382 max: 563.5131316437207
Time = 0.989

PIMPLE: iteration 1
time step continuity errors : sum local = 1.536459753848701e-08, global = -9.257237896098129e-10, cumulative = -1.197096787783128e-06
time step continuity errors : sum local = 1.022034754894256e-12, global = -5.695912461182741e-14, cumulative = -1.197096844742253e-06
PIMPLE: iteration 2
time step continuity errors : sum local = 9.519687128109266e-09, global = -5.848483969304988e-10, cumulative = -1.197681693139183e-06
time step continuity errors : sum local = 9.408920058784347e-13, global = -6.121686700322722e-14, cumulative = -1.19768175435605e-06
PIMPLE: iteration 3
time step continuity errors : sum local = 5.726915680111133e-09, global = -3.907454788872564e-10, cumulative = -1.198072499834937e-06
time step continuity errors : sum local = 9.342217593251072e-13, global = -7.947082960192773e-14, cumulative = -1.198072579305767e-06
PIMPLE: iteration 4
time step continuity errors : sum local = 3.951680055634007e-09, global = -2.866739593204234e-10, cumulative = -1.198359253265087e-06
time step continuity errors : sum local = 1.042658910988988e-12, global = -6.938302573786441e-14, cumulative = -1.198359322648113e-06
PIMPLE: iteration 5
time step continuity errors : sum local = 1.494547838493344e-08, global = 8.890952459101813e-10, cumulative = -1.197470227402203e-06
time step continuity errors : sum local = 1.172615717259769e-12, global = 4.489425714493442e-14, cumulative = -1.197470182507946e-06
PIMPLE: not converged within 5 iterations
ExecutionTime = 459.39 s  ClockTime = 460 s

Courant Number mean: 0.04601273586856397 max: 563.49723708151
Time = 0.99

PIMPLE: iteration 1
time step continuity errors : sum local = 1.53675944079556e-08, global = -9.235616115154297e-10, cumulative = -1.198393744119461e-06
time step continuity errors : sum local = 1.035111117485478e-12, global = -5.843121095512139e-14, cumulative = -1.198393802550672e-06
PIMPLE: iteration 2
time step continuity errors : sum local = 9.518173937787735e-09, global = -5.842447564687617e-10, cumulative = -1.198978047307141e-06
time step continuity errors : sum local = 9.367812668047142e-13, global = -5.992792896935793e-14, cumulative = -1.19897810723507e-06
PIMPLE: iteration 3
time step continuity errors : sum local = 5.735067911115717e-09, global = -3.922852254924697e-10, cumulative = -1.199370392460562e-06
time step continuity errors : sum local = 9.039067764553549e-13, global = -7.088513542579049e-14, cumulative = -1.199370463345698e-06
PIMPLE: iteration 4
time step continuity errors : sum local = 3.964951677475933e-09, global = -2.89217406437403e-10, cumulative = -1.199659680752135e-06
time step continuity errors : sum local = 1.003102986066321e-12, global = -6.027825303401745e-14, cumulative = -1.199659741030388e-06
PIMPLE: iteration 5
time step continuity errors : sum local = 1.492061688108202e-08, global = 8.841833240118953e-10, cumulative = -1.198775557706376e-06
time step continuity errors : sum local = 1.138258410587943e-12, global = 4.362955700387814e-14, cumulative = -1.198775514076819e-06
PIMPLE: not converged within 5 iterations
ExecutionTime = 459.86 s  ClockTime = 460 s

Courant Number mean: 0.04601199373987372 max: 563.4406398322343
Time = 0.991

PIMPLE: iteration 1
time step continuity errors : sum local = 1.534604839236557e-08, global = -9.214912815784692e-10, cumulative = -1.199697005358398e-06
time step continuity errors : sum local = 1.02406500920705e-12, global = -5.677900361786994e-14, cumulative = -1.199697062137402e-06
PIMPLE: iteration 2
time step continuity errors : sum local = 9.50668671420438e-09, global = -5.823447059193671e-10, cumulative = -1.200279406843321e-06
time step continuity errors : sum local = 9.427793857544377e-13, global = -6.123216618259757e-14, cumulative = -1.200279468075487e-06
PIMPLE: iteration 3
time step continuity errors : sum local = 5.727875202141394e-09, global = -3.903960300410302e-10, cumulative = -1.200669864105528e-06
time step continuity errors : sum local = 9.354681270545038e-13, global = -7.969097006052176e-14, cumulative = -1.200669943796498e-06
PIMPLE: iteration 4
time step continuity errors : sum local = 3.955534408074021e-09, global = -2.865865438000062e-10, cumulative = -1.200956530340298e-06
time step continuity errors : sum local = 1.042591305024999e-12, global = -6.925007490501156e-14, cumulative = -1.200956599590373e-06
PIMPLE: iteration 5
time step continuity errors : sum local = 1.492598878010485e-08, global = 8.846611362985647e-10, cumulative = -1.200071938454074e-06
time step continuity errors : sum local = 1.173954610510094e-12, global = 4.466545081474016e-14, cumulative = -1.200071893788624e-06
PIMPLE: not converged within 5 iterations
ExecutionTime = 460.32 s  ClockTime = 461 s

Courant Number mean: 0.0460112485730468 max: 563.4222245677902
Time = 0.992

PIMPLE: iteration 1
time step continuity errors : sum local = 1.534561578539772e-08, global = -9.186673341669493e-10, cumulative = -1.200990561122791e-06
time step continuity errors : sum local = 1.037899189536238e-12, global = -5.81462598384752e-14, cumulative = -1.20099061926905e-06
PIMPLE: iteration 2
time step continuity errors : sum local = 9.501770808344554e-09, global = -5.813684148514128e-10, cumulative = -1.201571987683902e-06
time step continuity errors : sum local = 9.39417034843511e-13, global = -5.986832748753206e-14, cumulative = -1.201572047552229e-06
PIMPLE: iteration 3
time step continuity errors : sum local = 5.734743313513921e-09, global = -3.919995124469603e-10, cumulative = -1.201964047064676e-06
time step continuity errors : sum local = 9.049916930930559e-13, global = -7.107156671806291e-14, cumulative = -1.201964118136243e-06
PIMPLE: iteration 4
time step continuity errors : sum local = 3.971344218318295e-09, global = -2.891978703765518e-10, cumulative = -1.20225331600662e-06
time step continuity errors : sum local = 1.002873514736657e-12, global = -6.008128400572282e-14, cumulative = -1.202253376087904e-06
PIMPLE: iteration 5
time step continuity errors : sum local = 1.491152446395611e-08, global = 8.800921229232091e-10, cumulative = -1.201373283964981e-06
time step continuity errors : sum local = 1.138795616088935e-12, global = 4.33411841935056e-14, cumulative = -1.201373240623796e-06
PIMPLE: not converged within 5 iterations
ExecutionTime = 460.79 s  ClockTime = 461 s

Courant Number mean: 0.04601042699621551 max: 563.3669720716566
Time = 0.993

PIMPLE: iteration 1
time step continuity errors : sum local = 1.533822982011496e-08, global = -9.166461317867963e-10, cumulative = -1.202289886755583e-06
time step continuity errors : sum local = 1.026316173110338e-12, global = -5.646203420492156e-14, cumulative = -1.202289943217617e-06
PIMPLE: iteration 2
time step continuity errors : sum local = 9.501141112467629e-09, global = -5.798020729086213e-10, cumulative = -1.202869745290526e-06
time step continuity errors : sum local = 9.451842075463861e-13, global = -6.114793038566235e-14, cumulative = -1.202869806438456e-06
PIMPLE: iteration 3
time step continuity errors : sum local = 5.732209406033634e-09, global = -3.904058522757524e-10, cumulative = -1.203260212290732e-06
time step continuity errors : sum local = 9.368274262663678e-13, global = -7.988891736150431e-14, cumulative = -1.203260292179649e-06
PIMPLE: iteration 4
time step continuity errors : sum local = 3.962052636748821e-09, global = -2.866971321910309e-10, cumulative = -1.203546989311841e-06
time step continuity errors : sum local = 1.043021083791932e-12, global = -6.909696390751281e-14, cumulative = -1.203547058408804e-06
PIMPLE: iteration 5
time step continuity errors : sum local = 1.492417946599397e-08, global = 8.818739551416054e-10, cumulative = -1.202665184453663e-06
time step continuity errors : sum local = 1.170695095340983e-12, global = 4.433562660616566e-14, cumulative = -1.202665140118036e-06
PIMPLE: not converged within 5 iterations
ExecutionTime = 461.26 s  ClockTime = 461 s

Courant Number mean: 0.04600954150752409 max: 563.3520086482406
Time = 0.994

PIMPLE: iteration 1
time step continuity errors : sum local = 1.534268846100658e-08, global = -9.147812165484053e-10, cumulative = -1.203579921334585e-06
time step continuity errors : sum local = 1.026392959169825e-12, global = -5.689704101463266e-14, cumulative = -1.203579978231626e-06
PIMPLE: iteration 2
time step continuity errors : sum local = 9.498134112899661e-09, global = -5.795246548869955e-10, cumulative = -1.204159502886513e-06
time step continuity errors : sum local = 9.292947475167847e-13, global = -5.846372457023208e-14, cumulative = -1.204159561350237e-06
PIMPLE: iteration 3
time step continuity errors : sum local = 5.740727127132681e-09, global = -3.923054119202481e-10, cumulative = -1.204551866762157e-06
time step continuity errors : sum local = 9.071837503241454e-13, global = -7.135088521796567e-14, cumulative = -1.204551938113043e-06
PIMPLE: iteration 4
time step continuity errors : sum local = 3.976127669934932e-09, global = -2.894284726303687e-10, cumulative = -1.204841366585673e-06
time step continuity errors : sum local = 1.005060645901291e-12, global = -6.023615342309938e-14, cumulative = -1.204841426821827e-06
PIMPLE: iteration 5
time step continuity errors : sum local = 1.490839491413271e-08, global = 8.768035309141159e-10, cumulative = -1.203964623290912e-06
time step continuity errors : sum local = 1.141665992694949e-12, global = 4.331808906461593e-14, cumulative = -1.203964579972823e-06
PIMPLE: not converged within 5 iterations
ExecutionTime = 461.73 s  ClockTime = 462 s

Courant Number mean: 0.04600856634569999 max: 563.2959854178597
Time = 0.995

PIMPLE: iteration 1
time step continuity errors : sum local = 1.534848110053792e-08, global = -9.137285390264085e-10, cumulative = -1.20487830851185e-06
time step continuity errors : sum local = 1.028897104849562e-12, global = -5.654010883928915e-14, cumulative = -1.204878365051959e-06
PIMPLE: iteration 2
time step continuity errors : sum local = 9.508084962157535e-09, global = -5.784014266198664e-10, cumulative = -1.205456766478579e-06
time step continuity errors : sum local = 9.475019480894469e-13, global = -6.13971752843101e-14, cumulative = -1.205456827875754e-06
PIMPLE: iteration 3
time step continuity errors : sum local = 5.746357791444739e-09, global = -3.908551148474104e-10, cumulative = -1.205847682990601e-06
time step continuity errors : sum local = 9.378710216232764e-13, global = -7.998547734316026e-14, cumulative = -1.205847762976079e-06
PIMPLE: iteration 4
time step continuity errors : sum local = 3.972704693689988e-09, global = -2.869867155181743e-10, cumulative = -1.206134749691597e-06
time step continuity errors : sum local = 1.042643284480671e-12, global = -6.891147866432479e-14, cumulative = -1.206134818603075e-06
PIMPLE: iteration 5
time step continuity errors : sum local = 1.492619791285898e-08, global = 8.786120899763745e-10, cumulative = -1.205256206513099e-06
time step continuity errors : sum local = 1.172019731308912e-12, global = 4.413386646299342e-14, cumulative = -1.205256162379233e-06
PIMPLE: not converged within 5 iterations
ExecutionTime = 462.19 s  ClockTime = 462 s

Courant Number mean: 0.04600751676506531 max: 563.2782007911942
Time = 0.996

PIMPLE: iteration 1
time step continuity errors : sum local = 1.535509998824727e-08, global = -9.117686394955809e-10, cumulative = -1.206167931018728e-06
time step continuity errors : sum local = 1.027446110823767e-12, global = -5.667991279679666e-14, cumulative = -1.206167987698641e-06
PIMPLE: iteration 2
time step continuity errors : sum local = 9.502533863871076e-09, global = -5.780933525278661e-10, cumulative = -1.206746081051169e-06
time step continuity errors : sum local = 9.305500498662321e-13, global = -5.842304912800912e-14, cumulative = -1.206746139474218e-06
PIMPLE: iteration 3
time step continuity errors : sum local = 5.752159801605248e-09, global = -3.92893824236582e-10, cumulative = -1.207139033298454e-06
time step continuity errors : sum local = 9.082384014734437e-13, global = -7.144988675948825e-14, cumulative = -1.207139104748341e-06
PIMPLE: iteration 4
time step continuity errors : sum local = 3.988069016070606e-09, global = -2.897510280650131e-10, cumulative = -1.207428855776406e-06
time step continuity errors : sum local = 1.004821979085055e-12, global = -6.004698117784669e-14, cumulative = -1.207428915823387e-06
PIMPLE: iteration 5
time step continuity errors : sum local = 1.49134893269968e-08, global = 8.738609684049966e-10, cumulative = -1.206555054854982e-06
time step continuity errors : sum local = 1.141999777525704e-12, global = 4.306813732617301e-14, cumulative = -1.206555011786845e-06
PIMPLE: not converged within 5 iterations
ExecutionTime = 462.67 s  ClockTime = 463 s

Courant Number mean: 0.04600636588677329 max: 563.2240038875885
Time = 0.997

PIMPLE: iteration 1
time step continuity errors : sum local = 1.535847958655752e-08, global = -9.118659029202812e-10, cumulative = -1.207466877689765e-06
time step continuity errors : sum local = 1.030679469751006e-12, global = -5.643639597991169e-14, cumulative = -1.207466934126161e-06
PIMPLE: iteration 2
time step continuity errors : sum local = 9.512151589457153e-09, global = -5.779544522298721e-10, cumulative = -1.208044888578391e-06
time step continuity errors : sum local = 9.491876441911988e-13, global = -6.147490217290689e-14, cumulative = -1.208044950053293e-06
PIMPLE: iteration 3
time step continuity errors : sum local = 5.753915434416091e-09, global = -3.916763852482816e-10, cumulative = -1.208436626438542e-06
time step continuity errors : sum local = 9.388807331948021e-13, global = -8.011982058320613e-14, cumulative = -1.208436706558362e-06
PIMPLE: iteration 4
time step continuity errors : sum local = 3.978546740334836e-09, global = -2.873229481557209e-10, cumulative = -1.208724029506518e-06
time step continuity errors : sum local = 1.043198497152444e-12, global = -6.88877180870725e-14, cumulative = -1.208724098394236e-06
PIMPLE: iteration 5
time step continuity errors : sum local = 1.492588052566209e-08, global = 8.759118396615666e-10, cumulative = -1.207848186554574e-06
time step continuity errors : sum local = 1.170754044441785e-12, global = 4.399921780353705e-14, cumulative = -1.207848142555357e-06
PIMPLE: not converged within 5 iterations
ExecutionTime = 463.13 s  ClockTime = 463 s

Courant Number mean: 0.04600533218791677 max: 563.2103656326348
Time = 0.998

PIMPLE: iteration 1
time step continuity errors : sum local = 1.536412191881143e-08, global = -9.091431941190359e-10, cumulative = -1.208757285749476e-06
time step continuity errors : sum local = 1.027683542389148e-12, global = -5.670670437047318e-14, cumulative = -1.20875734245618e-06
PIMPLE: iteration 2
time step continuity errors : sum local = 9.508629341992332e-09, global = -5.772832106921648e-10, cumulative = -1.209334625666872e-06
time step continuity errors : sum local = 9.305325885423521e-13, global = -5.856319324975607e-14, cumulative = -1.209334684230066e-06
PIMPLE: iteration 3
time step continuity errors : sum local = 5.764602926434416e-09, global = -3.93731991752796e-10, cumulative = -1.209728416221818e-06
time step continuity errors : sum local = 9.098267909615375e-13, global = -7.157710799093377e-14, cumulative = -1.209728487798926e-06
PIMPLE: iteration 4
time step continuity errors : sum local = 3.993449997212594e-09, global = -2.899624335597865e-10, cumulative = -1.210018450232486e-06
time step continuity errors : sum local = 1.005738128407222e-12, global = -6.012609314990152e-14, cumulative = -1.210018510358579e-06
PIMPLE: iteration 5
time step continuity errors : sum local = 1.490943460346657e-08, global = 8.714791457763334e-10, cumulative = -1.209147031212803e-06
time step continuity errors : sum local = 1.140056149296118e-12, global = 4.29820369438216e-14, cumulative = -1.209146988230766e-06
PIMPLE: not converged within 5 iterations
ExecutionTime = 463.6 s  ClockTime = 464 s

Courant Number mean: 0.04600435213759441 max: 563.1556032198366
Time = 0.999

PIMPLE: iteration 1
time step continuity errors : sum local = 1.534920394434973e-08, global = -9.092925936213874e-10, cumulative = -1.210056280824387e-06
time step continuity errors : sum local = 1.031044558737652e-12, global = -5.669815077963874e-14, cumulative = -1.210056337522538e-06
PIMPLE: iteration 2
time step continuity errors : sum local = 9.501422521309426e-09, global = -5.762390497609635e-10, cumulative = -1.210632576572299e-06
time step continuity errors : sum local = 9.497978070997827e-13, global = -6.177628037533251e-14, cumulative = -1.21063263834858e-06
PIMPLE: iteration 3
time step continuity errors : sum local = 5.759168456426226e-09, global = -3.919383436298517e-10, cumulative = -1.211024576692209e-06
time step continuity errors : sum local = 9.402364481008557e-13, global = -8.033610711141753e-14, cumulative = -1.211024657028317e-06
PIMPLE: iteration 4
time step continuity errors : sum local = 3.986277754971842e-09, global = -2.874278464346437e-10, cumulative = -1.211312084874751e-06
time step continuity errors : sum local = 1.043359048916001e-12, global = -6.880045458620109e-14, cumulative = -1.211312153675206e-06
PIMPLE: iteration 5
time step continuity errors : sum local = 1.492779694740584e-08, global = 8.740412235095692e-10, cumulative = -1.210438112451696e-06
time step continuity errors : sum local = 1.171249229529979e-12, global = 4.389457250230841e-14, cumulative = -1.210438068557124e-06
PIMPLE: not converged within 5 iterations
ExecutionTime = 464.05 s  ClockTime = 464 s

Courant Number mean: 0.04600332771559237 max: 563.1399369902292
Time = 1

PIMPLE: iteration 1
time step continuity errors : sum local = 1.536563722731577e-08, global = -9.075700273745842e-10, cumulative = -1.211345638584498e-06
time step continuity errors : sum local = 1.029166784567288e-12, global = -5.693083385791182e-14, cumulative = -1.211345695515332e-06
PIMPLE: iteration 2
time step continuity errors : sum local = 9.509509661633611e-09, global = -5.762999939213522e-10, cumulative = -1.211921995509254e-06
time step continuity errors : sum local = 9.324381362755856e-13, global = -5.873821093914628e-14, cumulative = -1.211922054247465e-06
PIMPLE: iteration 3
time step continuity errors : sum local = 5.779547140861671e-09, global = -3.947515882710273e-10, cumulative = -1.212316805835736e-06
time step continuity errors : sum local = 9.110740193492202e-13, global = -7.173810748155604e-14, cumulative = -1.212316877573843e-06
PIMPLE: iteration 4
time step continuity errors : sum local = 4.007955790465458e-09, global = -2.906404065182704e-10, cumulative = -1.212607517980361e-06
time step continuity errors : sum local = 1.006499704823482e-12, global = -6.005969352578966e-14, cumulative = -1.212607578040055e-06
PIMPLE: iteration 5
time step continuity errors : sum local = 1.491689880359569e-08, global = 8.694731418563863e-10, cumulative = -1.211738104898199e-06
time step continuity errors : sum local = 1.139817043960544e-12, global = 4.283252233418116e-14, cumulative = -1.211738062065676e-06
PIMPLE: not converged within 5 iterations
ExecutionTime = 464.71 s  ClockTime = 465 s

End

Finalising parallel run
