2025-12-17 15:46:10.012138: I tensorflow/core/platform/cpu_feature_guard.cc:182] This TensorFlow binary is optimized to use available CPU instructions in performance-critical operations.
To enable the following instructions: AVX2 FMA, in other operations, rebuild TensorFlow with the appropriate compiler flags.
2025-12-17 15:46:10.012138: I tensorflow/core/platform/cpu_feature_guard.cc:182] This TensorFlow binary is optimized to use available CPU instructions in performance-critical operations.
To enable the following instructions: AVX2 FMA, in other operations, rebuild TensorFlow with the appropriate compiler flags.
2025-12-17 15:46:10.037174: I tensorflow/core/platform/cpu_feature_guard.cc:182] This TensorFlow binary is optimized to use available CPU instructions in performance-critical operations.
To enable the following instructions: AVX2 FMA, in other operations, rebuild TensorFlow with the appropriate compiler flags.
2025-12-17 15:46:10.037152: I tensorflow/core/platform/cpu_feature_guard.cc:182] This TensorFlow binary is optimized to use available CPU instructions in performance-critical operations.
To enable the following instructions: AVX2 FMA, in other operations, rebuild TensorFlow with the appropriate compiler flags.
 
-------------------------------------------------------------------------------
|                               DAFoam v4.0.3                                 |
-------------------------------------------------------------------------------
 
/*---------------------------------------------------------------------------*\
| =========                 |                                                 |
| \\      /  F ield         | OpenFOAM: The Open Source CFD Toolbox           |
|  \\    /   O peration     | Version:  v1812                                 |
|   \\  /    A nd           | Web:      www.OpenFOAM.com                      |
|    \\/     M anipulation  |                                                 |
\*---------------------------------------------------------------------------*/
Build  : v1812 OPENFOAM=1812
Arch   : "LSB;label=32;scalar=64"
Exec   : decomposePar
Date   : Dec 17 2025
Time   : 15:46:12
Host   : 9a7fc72f6920
PID    : 759
I/O    : uncollated
Case   : /home/dafoamuser/mount
nProcs : 1
trapFpe: Floating point exception trapping enabled (FOAM_SIGFPE).
fileModificationChecking : Monitoring run-time modified files using timeStampMaster (fileModificationSkew 10)
allowSystemOperations : Allowing user-supplied system call operations

// * * * * * * * * * * * * * * * * * * * * * * * * * * * * * * * * * * * * * //
Create time

Overriding DebugSwitches according to controlDict
    SolverPerformance 0;



Decomposing mesh region0

Create mesh

Calculating distribution of cells
Selecting decompositionMethod scotch [4]

Finished decomposition in 0.05 s

Calculating original mesh data

Distributing cells to processors

Distributing faces to processors

Distributing points to processors

Constructing processor meshes
Overriding DebugSwitches according to controlDict
    SolverPerformance 0;


Processor 0
    Number of cells = 9729
    Number of faces shared with processor 1 = 101
    Number of faces shared with processor 2 = 12
    Number of faces shared with processor 3 = 82
    Number of processor patches = 3
    Number of processor faces = 195
    Number of boundary faces = 19743
Overriding DebugSwitches according to controlDict
    SolverPerformance 0;


Processor 1
    Number of cells = 9734
    Number of faces shared with processor 0 = 101
    Number of faces shared with processor 2 = 58
    Number of faces shared with processor 3 = 61
    Number of processor patches = 3
    Number of processor faces = 220
    Number of boundary faces = 19753
Overriding DebugSwitches according to controlDict
    SolverPerformance 0;


Processor 2
    Number of cells = 9614
    Number of faces shared with processor 0 = 12
    Number of faces shared with processor 1 = 58
    Number of faces shared with processor 3 = 112
    Number of processor patches = 3
    Number of processor faces = 182
    Number of boundary faces = 19510
Overriding DebugSwitches according to controlDict
    SolverPerformance 0;


Processor 3
    Number of cells = 9715
    Number of faces shared with processor 0 = 82
    Number of faces shared with processor 1 = 61
    Number of faces shared with processor 2 = 112
    Number of processor patches = 3
    Number of processor faces = 255
    Number of boundary faces = 19731

Number of processor faces = 426
Max number of cells = 9734 (0.3712105588781192% above average 9698)
Max number of processor patches = 3 (0% above average 3)
Max number of faces between processors = 255 (19.71830985915493% above average 213)

Time = 0

Processor 0: field transfer
Overriding DebugSwitches according to controlDict
    SolverPerformance 0;

Processor 1: field transfer
Overriding DebugSwitches according to controlDict
    SolverPerformance 0;

Processor 2: field transfer
Overriding DebugSwitches according to controlDict
    SolverPerformance 0;

Processor 3: field transfer
Overriding DebugSwitches according to controlDict
    SolverPerformance 0;


End

I/O    : uncollated
Case   : /home/dafoamuser/mount
nProcs : 4
Hosts  :
(
    (9a7fc72f6920 4)
)
Pstream initialized with:
    floatTransfer      : 0
    nProcsSimpleSum    : 0
    commsType          : nonBlocking
    polling iterations : 0
Initializing mesh and runtime for DASolver
Create time

Overriding DebugSwitches according to controlDict
    SolverPerformance 0;

Create mesh for time = 0
Replacing wallDist.method meshWave -> meshWaveFrozen
DAOpton initialized 
I/O    : uncollated
Case   : /home/dafoamuser/mount
nProcs : 4
Hosts  :
(
    (9a7fc72f6920 4)
)
Pstream initialized with:
    floatTransfer      : 0
    nProcsSimpleSum    : 0
    commsType          : nonBlocking
    polling iterations : 0
Initializing mesh and runtime for DASolver
Create time

Overriding DebugSwitches according to controlDict
    SolverPerformance 0;

Create mesh for time = 0
Replacing wallDist.method meshWave -> meshWaveFrozen
DAOpton initialized 
Initializing fields for DASimpleFoam
Create simpleControl.

SIMPLE: no convergence criteria found. Calculations will run for 500 steps.

Reading field p

Reading field U

Reading/calculating face flux field phi

Creating source term. 
Selecting incompressible transport model Newtonian
Selecting turbulence model type RAS
Selecting RAS turbulence model SpalartAllmaras
Selecting patchDistMethod meshWaveFrozen
No MRF models present

Turbulence model is incompressible
Adjoint States: 
4
(
U volVectorState
nuTilda modelState
phi surfaceScalarState
p volScalarState
)
Global Cells: 38792
Global Faces: 156992
Global Xv: 243720
Undecomposed points: 80378
Global Adjoint States: 350952

SIMPLE: no convergence criteria found. Calculations will run for 500 steps.

DACheckMesh Thresholds: 
maxNonOrth: 70
maxSkewness: 4
maxAspectRatio: 5000
maxIncorrectlyOrientedFaces: 0
Initializing fields for DASimpleFoam
Create simpleControl.

SIMPLE: no convergence criteria found. Calculations will run for 500 steps.

Reading field p

Reading field U

Reading/calculating face flux field phi

Creating source term. 
Selecting incompressible transport model Newtonian
Selecting turbulence model type RAS
Selecting RAS turbulence model SpalartAllmaras
Selecting patchDistMethod meshWaveFrozen
No MRF models present

Turbulence model is incompressible
Adjoint States: 
4
(
U volVectorState
nuTilda modelState
phi surfaceScalarState
p volScalarState
)
Global Cells: 38792
Global Faces: 156992
Global Xv: 243720
Undecomposed points: 80378
Global Adjoint States: 350952

SIMPLE: no convergence criteria found. Calculations will run for 500 steps.

DACheckMesh Thresholds: 
maxNonOrth: 70
maxSkewness: 4
maxAspectRatio: 5000
maxIncorrectlyOrientedFaces: 0
Init solver done! ElapsedClockTime 1.000000 s
Init solver done! ElapsedCpuTime 0.770000 s
initState: 
6
(
nuTilda 4.500000000000508e-05
phi 0
U1 0
U2 0
p 0
U0 4.999999999999222
)
Setting up primal boundary conditions based on pyOptions: 
Setting primal boundary conditions...
Setting U = (18.79385241571817 6.840402866513374 0) at inout
Setting nut wall BC for profile0. BCType=nutLowReWallFunction
Setting nut wall BC for profile1. BCType=nutLowReWallFunction
Reading OpenFOAM mesh information...
I/O    : uncollated
Case   : /home/dafoamuser/mount
nProcs : 4
Hosts  :
(
    (9a7fc72f6920 4)
)
Pstream initialized with:
    floatTransfer      : 0
    nProcsSimpleSum    : 0
    commsType          : nonBlocking
    polling iterations : 0
Reading the OpenFOAM mesh..
Overriding DebugSwitches according to controlDict
    SolverPerformance 0;

Checking if we need to compress the mesh files
Checking if we need to compress the mesh files
Finalising parallel run
I/O    : uncollated
DAFoam option dictionary: 
{
    solverName      DASimpleFoam;
    primalMinResTol 1e-16;
    primalBC
    {
        U0
        {
            variable        U;
            patches         1 ( inout );
            value           3 ( 18.79385241571817 6.840402866513374 0 );
        }
        useWallFunction 0;
    }
    primalInitCondition
    {
    }
    normalizeStates
    {
    }
    function
    {
    }
    inputInfo
    {
    }
    outputInfo
    {
    }
    designSurfaces  2 ( profile0 profile1 );
    fvSource
    {
    }
    adjEqnSolMethod Krylov;
    dynamicMesh
    {
        active          0;
        mode            rotation;
        center          3 ( 0.25 0 0 );
        axis            z;
        omega           0.1;
    }
    primalVarBounds
    {
        UMax            1000;
        UMin            -1000;
        pMax            50000;
        pMin            -50000;
        p_rghMax        50000;
        p_rghMin        -50000;
        eMax            500000;
        eMin            100000;
        TMax            1000;
        TMin            100;
        hMax            500000;
        hMin            100000;
        DMax            1e+16;
        DMin            -1e+16;
        rhoMax          5;
        rhoMin          0.2;
        nuTildaMax      1e+16;
        nuTildaMin      1e-16;
        kMax            1e+16;
        kMin            1e-16;
        omegaMax        1e+16;
        omegaMin        1e-16;
        epsilonMax      1e+16;
        epsilonMin      1e-16;
        ReThetatMax     1e+16;
        ReThetatMin     1e-16;
        gammaIntMax     1e+16;
        gammaIntMin     1e-16;
    }
    discipline      aero;
    adjPartDerivFDStep
    {
        State           1e-06;
    }
    transonicPCOption -1;
    unsteadyAdjoint
    {
        mode            None;
        PCMatPrecomputeInterval 100;
        PCMatUpdateInterval 1;
        reduceIO        1;
        additionalOutput 1 ( None );
        additionalOldTime 1 ( None );
        readZeroFields  1;
    }
    adjPCLag        10000;
    useAD
    {
        mode            reverse;
        dvName          None;
        seedIndex       -9999;
    }
    useConstrainHbyA 1;
    forceMeshWaveFrozen 1;
    useDdtCorr      0;
    regressionModel
    {
        active          0;
    }
    useMeanStates   0;
    solveLinearFunctionName None;
    printDAOptions  1;
    debug           0;
    writeJacobians  1 ( None );
    printInterval   100;
    printIntervalUnsteady 1;
    primalMinResTolDiff 1e+16;
    adjUseColoring  1;
    adjEqnOption
    {
        globalPCIters   0;
        asmOverlap      1;
        localPCIters    1;
        jacMatReOrdering rcm;
        pcFillLevel     1;
        gmresMaxIters   1000;
        gmresRestart    1000;
        gmresRelTol     1e-06;
        gmresAbsTol     1e-14;
        gmresTolDiff    100;
        useNonZeroInitGuess 0;
        useMGSO         0;
        printInfo       1;
        fpMaxIters      1000;
        fpRelTol        1e-06;
        fpMinResTolDiff 100;
        fpPCUpwind      0;
        dynAdjustTol    0;
        KSPCalcEigen    0;
        KSPCalcSingularVal 0;
        readPCMat       0;
    }
    normalizeResiduals 11 ( URes pRes p_rghRes nuTildaRes phiRes TRes DRes kRes omegaRes epsilonRes alpha.waterRes );
    maxResConLv4JacPCMat
    {
        pRes            2;
        phiRes          1;
        URes            2;
        TRes            2;
        nuTildaRes      2;
        kRes            2;
        epsilonRes      2;
        omegaRes        2;
        p_rghRes        2;
        DRes            2;
        gammaIntRes     2;
        ReThetatRes     2;
        alpha.waterRes  2;
    }
    jacLowerBounds
    {
        dRdW            1e-30;
        dRdWPC          1e-30;
    }
    maxTractionBCIters 100;
    decomposeParDict
    {
        method          scotch;
        simpleCoeffs
        {
            n               3 ( 2 2 1 );
            delta           0.001;
        }
        preservePatches 1 ( None );
        singleProcessorFaceSets 1 ( None );
        args            1 ( None );
    }
    adjStateOrdering state;
    checkMeshThreshold
    {
        maxAspectRatio  5000;
        maxNonOrth      70;
        maxSkewness     4;
        maxIncorrectlyOrientedFaces 0;
    }
    writeDeformedFFDs 0;
    writeDeformedConstraints 0;
    writeAdjointFields 0;
    maxCorrectBCCalls 2;
    writeMinorIterations 0;
    primalMinIters  1;
    tensorflow
    {
        active          0;
    }
    wallDistanceMethod default;
    unsteadyCompOutput
    {
    }
}

pyDAFoam initialization done!
Running Primal Solver 001
Previous solution time -1e+10 not found and nothing deleted.
No finite volume options present

Starting time loop

Time = 1

U0 initRes: 0.9999999999999994 finalRes: 0.02585027030039449 nIters: 1
U1 initRes: 1 finalRes: 0.02284494281368229 nIters: 1
U2 initRes: 0.9980736430646485 finalRes: 0.09847760240324926 nIters: 3
p initRes: 1 finalRes: 0.04139672229391322 nIters: 4
Time step continuity errors : sum local = 0.01947167312490034
                                 global = -0.0003387579619373145
                             cumulative = -0.0003387579619373145
nuTilda initRes: 0.9999999999963658 finalRes: 0.04372409995124008 nIters: 2
Bounding nuTilda>1e-16
yPlus min: 1.803226547420592 max: 12.84241159838573 mean: 8.041183969972346
ExecutionTime = 1.17 s  ClockTime = 1 s

Time = 100

U0 initRes: 0.003464004278295523 finalRes: 0.0002963577320713783 nIters: 4
U1 initRes: 0.005437423030430814 finalRes: 0.000364521719314099 nIters: 4
U2 initRes: 0.01551922279426861 finalRes: 0.0009336409830778453 nIters: 3
p initRes: 0.08285349286918367 finalRes: 0.004966472570395101 nIters: 2
Time step continuity errors : sum local = 0.004541029333455792
                                 global = -0.0002555059756986802
                             cumulative = -0.0005942639376359947
nuTilda initRes: 0.02941756567437478 finalRes: 0.002271988481996145 nIters: 3
Bounding nuTilda>1e-16
yPlus min: 0.1607112491363204 max: 24.475680008155 mean: 7.473959520520216
ExecutionTime = 5.64 s  ClockTime = 6 s

Time = 200

U0 initRes: 0.006723328197647067 finalRes: 0.0004066907001048747 nIters: 3
U1 initRes: 0.009814899287242673 finalRes: 0.0009672688338522637 nIters: 2
U2 initRes: 0.01441404260414004 finalRes: 0.001290453156607438 nIters: 2
p initRes: 0.08978881521766742 finalRes: 0.007198934329484027 nIters: 2
Time step continuity errors : sum local = 0.003362261577634688
                                 global = 0.0008541117977842812
                             cumulative = 0.0002598478601482865
nuTilda initRes: 0.01987522664605519 finalRes: 0.001907474011331331 nIters: 3
Bounding nuTilda>1e-16
yPlus min: 0.1933423329606044 max: 28.90240366181267 mean: 9.077234691878136
ExecutionTime = 10.11 s  ClockTime = 10 s

Time = 300

U0 initRes: 0.006242033791178275 finalRes: 0.0003947934276422741 nIters: 4
U1 initRes: 0.009514170762976577 finalRes: 0.000617221472299278 nIters: 4
U2 initRes: 0.03750142849557696 finalRes: 0.00203291287164355 nIters: 3
p initRes: 0.01503044721294648 finalRes: 0.001043210319442199 nIters: 2
Time step continuity errors : sum local = 0.002500752739527071
                                 global = -0.0001830882299136773
                             cumulative = 7.675963023460921e-05
nuTilda initRes: 0.009519755476646543 finalRes: 0.0007645499064319497 nIters: 4
Bounding nuTilda>1e-16
yPlus min: 0.1566591632770911 max: 31.03282528181406 mean: 9.951323378181755
ExecutionTime = 14.56 s  ClockTime = 15 s

Time = 400

U0 initRes: 0.009103246543437096 finalRes: 0.0007890401866784546 nIters: 3
U1 initRes: 0.0167331690841171 finalRes: 0.001010319538726199 nIters: 3
U2 initRes: 0.04570632791240015 finalRes: 0.004296679809898749 nIters: 2
p initRes: 0.02376971942130078 finalRes: 0.002344293352065005 nIters: 2
Time step continuity errors : sum local = 0.00505552003879474
                                 global = 0.0005687932879793276
                             cumulative = 0.0006455529182139368
nuTilda initRes: 0.02249034734907047 finalRes: 0.001805372964249043 nIters: 4
Bounding nuTilda>1e-16
yPlus min: 0.1004229700328854 max: 31.93367316888163 mean: 9.622731145256646
ExecutionTime = 19.03 s  ClockTime = 19 s

Time = 500

U0 initRes: 0.008601738700430139 finalRes: 0.0005226051896148801 nIters: 4
U1 initRes: 0.01633156142691978 finalRes: 0.0008973703322182203 nIters: 4
U2 initRes: 0.05717346936287693 finalRes: 0.005217598978329866 nIters: 2
p initRes: 0.01428021719002473 finalRes: 0.001004463122330187 nIters: 2
Time step continuity errors : sum local = 0.002852360596826752
                                 global = 0.0001140871333091043
                             cumulative = 0.0007596400515230411
nuTilda initRes: 0.01270108253867773 finalRes: 0.0009673025224780371 nIters: 4
Bounding nuTilda>1e-16
yPlus min: 0.1701521695098888 max: 34.38945199724392 mean: 11.1800592260358
ExecutionTime = 23.51 s  ClockTime = 24 s

End

Finalising parallel run
Finalising parallel run
