/*---------------------------------------------------------------------------*\
| =========                 |                                                 |
| \\      /  F ield         | OpenFOAM: The Open Source CFD Toolbox           |
|  \\    /   O peration     | Version:  v1812                                 |
|   \\  /    A nd           | Web:      www.OpenFOAM.com                      |
|    \\/     M anipulation  |                                                 |
\*---------------------------------------------------------------------------*/
Build  : v1812 OPENFOAM=1812
Arch   : "LSB;label=32;scalar=64"
Exec   : pimpleFoam -parallel
Date   : Dec 17 2025
Time   : 00:16:22
Host   : f172ffcedfdd
PID    : 623
I/O    : uncollated
Case   : /home/dafoamuser/mount
nProcs : 4
Hosts  :
(
    (f172ffcedfdd 4)
)
Pstream initialized with:
    floatTransfer      : 0
    nProcsSimpleSum    : 0
    commsType          : nonBlocking
    polling iterations : 0
trapFpe: Floating point exception trapping enabled (FOAM_SIGFPE).
fileModificationChecking : Monitoring run-time modified files using timeStampMaster (fileModificationSkew 10)
allowSystemOperations : Allowing user-supplied system call operations

// * * * * * * * * * * * * * * * * * * * * * * * * * * * * * * * * * * * * * //
Create time

Overriding DebugSwitches according to controlDict
    SolverPerformance 0;

Create mesh for time = 0


PIMPLE: max iterations = 5
    field "(U|T|e|h|nuTilda|k|omega|epsilon|p|p_rgh|G)"	: relTol 1e-08, tolerance 1e-08

Reading field p

Reading field U

Reading/calculating face flux field phi

Selecting incompressible transport model Newtonian
Selecting turbulence model type RAS
Selecting RAS turbulence model SpalartAllmaras
Selecting patchDistMethod meshWave
No MRF models present

No finite volume options present
Courant Number mean: 0.04535656411754501 max: 268.7466135250665

Starting time loop

Courant Number mean: 0.04535656411754501 max: 268.7466135250665
Time = 0.001

PIMPLE: iteration 1
time step continuity errors : sum local = 2.436887703655222e-08, global = 1.936141048015498e-09, cumulative = 1.936141048015498e-09
time step continuity errors : sum local = 1.298179057905485e-12, global = 1.76639216354126e-13, cumulative = 1.936317687231853e-09
PIMPLE: iteration 2
time step continuity errors : sum local = 1.405508689816379e-08, global = 1.03341564575039e-09, cumulative = 2.969733332982243e-09
time step continuity errors : sum local = 1.416859944198805e-12, global = 3.043979502725244e-13, cumulative = 2.970037730932515e-09
PIMPLE: iteration 3
time step continuity errors : sum local = 1.200044039099903e-08, global = 4.05924373598645e-10, cumulative = 3.37596210453116e-09
time step continuity errors : sum local = 1.255323032492274e-12, global = 9.727829493394681e-14, cumulative = 3.376059382826094e-09
PIMPLE: iteration 4
time step continuity errors : sum local = 6.837555027725112e-09, global = -1.661808676813504e-10, cumulative = 3.209878515144743e-09
time step continuity errors : sum local = 1.209668075679987e-12, global = -4.305587261315274e-15, cumulative = 3.209874209557482e-09
PIMPLE: iteration 5
time step continuity errors : sum local = 1.877351524565609e-08, global = -1.286670908007354e-09, cumulative = 1.923203301550128e-09
time step continuity errors : sum local = 1.480112314576951e-12, global = 9.610639861953141e-14, cumulative = 1.923299407948747e-09
PIMPLE: not converged within 5 iterations
ExecutionTime = 0.97 s  ClockTime = 1 s

Courant Number mean: 0.04533248540541557 max: 246.3392438704403
Time = 0.002

PIMPLE: iteration 1
time step continuity errors : sum local = 1.458668180807797e-08, global = -3.737020734859641e-10, cumulative = 1.549597334462783e-09
time step continuity errors : sum local = 7.934434601309768e-13, global = 3.731049785142561e-14, cumulative = 1.549634644960635e-09
PIMPLE: iteration 2
time step continuity errors : sum local = 1.231194604898183e-08, global = -1.188112529107694e-09, cumulative = 3.615221158529409e-10
time step continuity errors : sum local = 8.76822004899641e-13, global = -6.74943422176297e-14, cumulative = 3.614546215107233e-10
PIMPLE: iteration 3
time step continuity errors : sum local = 6.71738542829981e-09, global = -4.989127673814049e-10, cumulative = -1.374581458706816e-10
time step continuity errors : sum local = 8.477695955476497e-13, global = -3.110052430307923e-14, cumulative = -1.374892463949847e-10
PIMPLE: iteration 4
time step continuity errors : sum local = 4.876353785658714e-09, global = -3.794054115999859e-10, cumulative = -5.168946579949706e-10
time step continuity errors : sum local = 7.436508806790665e-13, global = -3.639783978523286e-14, cumulative = -5.169310558347559e-10
PIMPLE: iteration 5
time step continuity errors : sum local = 1.52140895616788e-08, global = -1.17330459697989e-09, cumulative = -1.690235652814646e-09
time step continuity errors : sum local = 7.100345609141196e-13, global = 3.441288758272545e-14, cumulative = -1.690201239927064e-09
PIMPLE: not converged within 5 iterations
ExecutionTime = 1.73 s  ClockTime = 2 s

Courant Number mean: 0.04531124002879169 max: 238.796002251302
Time = 0.003

PIMPLE: iteration 1
time step continuity errors : sum local = 1.752610911758294e-08, global = 1.118370126679657e-09, cumulative = -5.718311132474063e-10
time step continuity errors : sum local = 6.608257698660593e-13, global = 4.996177992126118e-14, cumulative = -5.71781151467485e-10
PIMPLE: iteration 2
time step continuity errors : sum local = 1.131908358567372e-08, global = 7.608713675145753e-10, cumulative = 1.890902160470902e-10
time step continuity errors : sum local = 7.659044518765564e-13, global = 6.162624813055799e-14, cumulative = 1.891518422952208e-10
PIMPLE: iteration 3
time step continuity errors : sum local = 6.242974895735002e-09, global = 4.740155299855291e-10, cumulative = 6.631673722807499e-10
time step continuity errors : sum local = 9.049259086546796e-13, global = 1.306134001014835e-13, cumulative = 6.632979856808514e-10
PIMPLE: iteration 4
time step continuity errors : sum local = 4.51976273512451e-09, global = 2.97969360564684e-10, cumulative = 9.612673462455355e-10
time step continuity errors : sum local = 8.384677016812509e-13, global = 1.059420876425174e-13, cumulative = 9.613732883331781e-10
PIMPLE: iteration 5
time step continuity errors : sum local = 1.403722991097065e-08, global = -1.044466374925919e-09, cumulative = -8.309308659274057e-11
time step continuity errors : sum local = 8.869182248652224e-13, global = 3.433283562254378e-14, cumulative = -8.305875375711803e-11
PIMPLE: not converged within 5 iterations
ExecutionTime = 2.46 s  ClockTime = 3 s

Courant Number mean: 0.04528821398347496 max: 237.3074667242086
Time = 0.004

PIMPLE: iteration 1
time step continuity errors : sum local = 1.322971416316649e-08, global = 9.84680587051836e-10, cumulative = 9.016218332947179e-10
time step continuity errors : sum local = 7.598674443725795e-13, global = 5.907239093187287e-14, cumulative = 9.016809056856497e-10
PIMPLE: iteration 2
time step continuity errors : sum local = 8.691167648668778e-09, global = 7.424111413681488e-10, cumulative = 1.644092047053799e-09
time step continuity errors : sum local = 7.431675373174204e-13, global = 6.032620491015339e-14, cumulative = 1.644152373258709e-09
PIMPLE: iteration 3
time step continuity errors : sum local = 7.142318130378308e-09, global = 6.372511235118377e-10, cumulative = 2.281403496770547e-09
time step continuity errors : sum local = 9.572571179467804e-13, global = 1.271734985444834e-13, cumulative = 2.281530670269091e-09
PIMPLE: iteration 4
time step continuity errors : sum local = 4.117740632634812e-09, global = 8.739565897727964e-12, cumulative = 2.290270236166819e-09
time step continuity errors : sum local = 8.150415819182379e-13, global = 4.805168248091315e-14, cumulative = 2.2903182878493e-09
PIMPLE: iteration 5
time step continuity errors : sum local = 1.301695509350864e-08, global = -1.015314157486639e-09, cumulative = 1.275004130362661e-09
time step continuity errors : sum local = 8.525658827302977e-13, global = 3.554396724214406e-14, cumulative = 1.275039674329903e-09
PIMPLE: not converged within 5 iterations
ExecutionTime = 3.22 s  ClockTime = 4 s

Courant Number mean: 0.04526401189876139 max: 237.5132152279476
Time = 0.005

PIMPLE: iteration 1
time step continuity errors : sum local = 1.321112899776611e-08, global = 1.00961007137156e-09, cumulative = 2.284649745701463e-09
time step continuity errors : sum local = 8.659057016065967e-13, global = 6.337566404039994e-14, cumulative = 2.284713121365503e-09
PIMPLE: iteration 2
time step continuity errors : sum local = 8.425605011369722e-09, global = 7.106181140586883e-10, cumulative = 2.995331235424192e-09
time step continuity errors : sum local = 9.446550364055943e-13, global = 7.521981197082808e-14, cumulative = 2.995406455236163e-09
PIMPLE: iteration 3
time step continuity errors : sum local = 6.959395861922655e-09, global = 6.571102578346539e-10, cumulative = 3.652516713070816e-09
time step continuity errors : sum local = 8.841754087533961e-13, global = 1.368495736113004e-13, cumulative = 3.652653562644428e-09
PIMPLE: iteration 4
time step continuity errors : sum local = 4.203818970082796e-09, global = -1.327622173423533e-11, cumulative = 3.639377340910192e-09
time step continuity errors : sum local = 9.772042594407088e-13, global = 3.346689342605342e-14, cumulative = 3.639410807803618e-09
PIMPLE: iteration 5
time step continuity errors : sum local = 1.283483303945557e-08, global = -9.943513966842203e-10, cumulative = 2.645059411119398e-09
time step continuity errors : sum local = 8.891453438828655e-13, global = 3.600901459250413e-14, cumulative = 2.645095420133991e-09
PIMPLE: not converged within 5 iterations
ExecutionTime = 3.96 s  ClockTime = 4 s

Courant Number mean: 0.04523948785023719 max: 238.2835050836273
Time = 0.006

PIMPLE: iteration 1
time step continuity errors : sum local = 1.289426144917618e-08, global = 9.67372551069639e-10, cumulative = 3.61246797120363e-09
time step continuity errors : sum local = 8.279331174271314e-13, global = 5.349996589961941e-14, cumulative = 3.61252147116953e-09
PIMPLE: iteration 2
time step continuity errors : sum local = 8.191774739728395e-09, global = 6.6465842553688e-10, cumulative = 4.277179896706409e-09
time step continuity errors : sum local = 8.635866147538329e-13, global = 5.867375250969054e-14, cumulative = 4.277238570458919e-09
PIMPLE: iteration 3
time step continuity errors : sum local = 7.049110915783411e-09, global = 6.698058871883524e-10, cumulative = 4.947044457647272e-09
time step continuity errors : sum local = 8.3920449575877e-13, global = 1.300029478257648e-13, cumulative = 4.947174460595098e-09
PIMPLE: iteration 4
time step continuity errors : sum local = 4.175874719134973e-09, global = -3.186219852844976e-11, cumulative = 4.915312262066649e-09
time step continuity errors : sum local = 9.593805176887394e-13, global = 3.54367684964929e-14, cumulative = 4.915347698835145e-09
PIMPLE: iteration 5
time step continuity errors : sum local = 1.279671708841035e-08, global = -9.882342721980985e-10, cumulative = 3.927113426637046e-09
time step continuity errors : sum local = 8.352686070923853e-13, global = 3.625540911330171e-14, cumulative = 3.92714968204616e-09
PIMPLE: not converged within 5 iterations
ExecutionTime = 4.69 s  ClockTime = 5 s

Courant Number mean: 0.0452150761428342 max: 239.6623605915935
Time = 0.007

PIMPLE: iteration 1
time step continuity errors : sum local = 1.265407531856729e-08, global = 9.360892762289764e-10, cumulative = 4.863238958275136e-09
time step continuity errors : sum local = 7.324654790128868e-13, global = 4.652005004628464e-14, cumulative = 4.863285478325182e-09
PIMPLE: iteration 2
time step continuity errors : sum local = 8.175765421488279e-09, global = 6.379821406914517e-10, cumulative = 5.501267619016634e-09
time step continuity errors : sum local = 8.137078472437267e-13, global = 5.229355362869697e-14, cumulative = 5.501319912570263e-09
PIMPLE: iteration 3
time step continuity errors : sum local = 7.008998755840657e-09, global = 6.556030148150568e-10, cumulative = 6.156922927385319e-09
time step continuity errors : sum local = 8.508161970764593e-13, global = 1.142592936152679e-13, cumulative = 6.157037186678934e-09
PIMPLE: iteration 4
time step continuity errors : sum local = 4.092962093534609e-09, global = -5.082584373089033e-11, cumulative = 6.106211342948043e-09
time step continuity errors : sum local = 9.41279384814326e-13, global = 3.591934678652447e-14, cumulative = 6.10624726229483e-09
PIMPLE: iteration 5
time step continuity errors : sum local = 1.270746571701863e-08, global = -9.908294405232298e-10, cumulative = 5.1154178217716e-09
time step continuity errors : sum local = 8.68244579128073e-13, global = 4.250492195762198e-14, cumulative = 5.115460326693558e-09
bounding nuTilda, min: -2.383933782190665e-05 max: 0.3032659078867037 average: 0.02366563917269734
PIMPLE: not converged within 5 iterations
ExecutionTime = 5.43 s  ClockTime = 6 s

Courant Number mean: 0.04519099901749331 max: 241.5695518288657
Time = 0.008

PIMPLE: iteration 1
time step continuity errors : sum local = 1.255596864022997e-08, global = 9.210180753340334e-10, cumulative = 6.036478402027591e-09
time step continuity errors : sum local = 8.205565594316381e-13, global = 4.246915211378526e-14, cumulative = 6.036520871179705e-09
PIMPLE: iteration 2
time step continuity errors : sum local = 8.224149564590182e-09, global = 6.296040382995369e-10, cumulative = 6.666124909479242e-09
time step continuity errors : sum local = 7.215147873956987e-13, global = 3.721117905119856e-14, cumulative = 6.666162120658293e-09
PIMPLE: iteration 3
time step continuity errors : sum local = 6.662296458180506e-09, global = 6.205159804407082e-10, cumulative = 7.286678101099001e-09
time step continuity errors : sum local = 8.487043720594054e-13, global = 1.214695664382612e-13, cumulative = 7.286799570665439e-09
PIMPLE: iteration 4
time step continuity errors : sum local = 4.009754581391845e-09, global = -7.209247915926562e-11, cumulative = 7.214707091506173e-09
time step continuity errors : sum local = 9.273657640004302e-13, global = 1.921688712913782e-14, cumulative = 7.214726308393302e-09
PIMPLE: iteration 5
time step continuity errors : sum local = 1.266935759484674e-08, global = -9.815453590342257e-10, cumulative = 6.233180949359077e-09
time step continuity errors : sum local = 8.928155659382753e-13, global = 4.655914200856189e-14, cumulative = 6.233227508501085e-09
bounding nuTilda, min: -3.1271866337578e-05 max: 0.3029481883568523 average: 0.02375661225594828
PIMPLE: not converged within 5 iterations
ExecutionTime = 6.18 s  ClockTime = 7 s

Courant Number mean: 0.04516719389300398 max: 243.8659668602302
Time = 0.009

PIMPLE: iteration 1
time step continuity errors : sum local = 1.247674033280144e-08, global = 9.142235790493147e-10, cumulative = 7.1474510875504e-09
time step continuity errors : sum local = 8.648901732223901e-13, global = 4.58487648537644e-14, cumulative = 7.147496936315254e-09
PIMPLE: iteration 2
time step continuity errors : sum local = 8.217422453907345e-09, global = 6.25326768726231e-10, cumulative = 7.772823705041485e-09
time step continuity errors : sum local = 7.44799460896606e-13, global = 3.961876455613697e-14, cumulative = 7.772863323806042e-09
PIMPLE: iteration 3
time step continuity errors : sum local = 6.229507311943655e-09, global = 5.668117753774954e-10, cumulative = 8.339675099183538e-09
time step continuity errors : sum local = 8.342363256220685e-13, global = 1.259705809277041e-13, cumulative = 8.339801069764466e-09
PIMPLE: iteration 4
time step continuity errors : sum local = 3.841841793736753e-09, global = -9.717445620037657e-11, cumulative = 8.242626613564089e-09
time step continuity errors : sum local = 9.299808850229654e-13, global = 6.338103014096576e-15, cumulative = 8.242632951667104e-09
PIMPLE: iteration 5
time step continuity errors : sum local = 1.249041852876211e-08, global = -9.460099627619755e-10, cumulative = 7.296622988905129e-09
time step continuity errors : sum local = 7.819118243863954e-13, global = 4.219459262405303e-14, cumulative = 7.296665183497752e-09
bounding nuTilda, min: -3.267203028036566e-05 max: 0.3029319109259243 average: 0.02383376953213034
PIMPLE: not converged within 5 iterations
ExecutionTime = 6.93 s  ClockTime = 7 s

Courant Number mean: 0.0451438120363952 max: 246.55904732673
Time = 0.01

PIMPLE: iteration 1
time step continuity errors : sum local = 1.24488902631059e-08, global = 9.116906465230315e-10, cumulative = 8.208355830020784e-09
time step continuity errors : sum local = 7.844847688728921e-13, global = 3.655102439122752e-14, cumulative = 8.208392381045175e-09
PIMPLE: iteration 2
time step continuity errors : sum local = 8.124887721154774e-09, global = 6.120324117671293e-10, cumulative = 8.820424792812305e-09
time step continuity errors : sum local = 8.695286242580821e-13, global = 5.127695556498649e-14, cumulative = 8.820476069767871e-09
PIMPLE: iteration 3
time step continuity errors : sum local = 5.979986060589555e-09, global = 5.026427980557127e-10, cumulative = 9.323118867823584e-09
time step continuity errors : sum local = 7.785944805576407e-13, global = 1.164293700297147e-13, cumulative = 9.323235297193613e-09
PIMPLE: iteration 4
time step continuity errors : sum local = 3.699323820710889e-09, global = -1.096988154674208e-10, cumulative = 9.213536481726192e-09
time step continuity errors : sum local = 9.716959504728703e-13, global = -8.739074882338802e-15, cumulative = 9.213527742651311e-09
PIMPLE: iteration 5
time step continuity errors : sum local = 1.218822255120918e-08, global = -8.829077318067548e-10, cumulative = 8.330620010844556e-09
time step continuity errors : sum local = 8.047821267106054e-13, global = 4.571526044911489e-14, cumulative = 8.330665726105006e-09
bounding nuTilda, min: -4.532575180336666e-05 max: 0.302816728531878 average: 0.02389680790288749
PIMPLE: not converged within 5 iterations
ExecutionTime = 7.67 s  ClockTime = 8 s

Courant Number mean: 0.04512095863476939 max: 249.6014388642781
Time = 0.011

PIMPLE: iteration 1
time step continuity errors : sum local = 1.227379396008565e-08, global = 8.942883779517941e-10, cumulative = 9.2249541040568e-09
time step continuity errors : sum local = 8.442416584882123e-13, global = 4.140741523123012e-14, cumulative = 9.224995511472031e-09
PIMPLE: iteration 2
time step continuity errors : sum local = 7.82628213282393e-09, global = 5.861598657696831e-10, cumulative = 9.811155377241715e-09
time step continuity errors : sum local = 8.541979787058518e-13, global = 5.126244907999224e-14, cumulative = 9.811206639690795e-09
PIMPLE: iteration 3
time step continuity errors : sum local = 5.817788991893868e-09, global = 4.445933055061477e-10, cumulative = 1.025579994519694e-08
time step continuity errors : sum local = 8.379712597738555e-13, global = 1.304399521831689e-13, cumulative = 1.025593038514913e-08
PIMPLE: iteration 4
time step continuity errors : sum local = 3.413198908076941e-09, global = -1.017612481685158e-10, cumulative = 1.015416913698061e-08
time step continuity errors : sum local = 7.909048789012706e-13, global = -1.555952968917853e-14, cumulative = 1.015415357745092e-08
PIMPLE: iteration 5
time step continuity errors : sum local = 1.865593253979832e-08, global = -1.266662407985684e-09, cumulative = 8.887491169465236e-09
time step continuity errors : sum local = 8.639092660628904e-13, global = 4.701887288094456e-14, cumulative = 8.887538188338116e-09
bounding nuTilda, min: -5.432637888108916e-05 max: 0.3030137874231068 average: 0.0239470415517257
PIMPLE: not converged within 5 iterations
ExecutionTime = 8.42 s  ClockTime = 9 s

Courant Number mean: 0.04509829070487009 max: 253.0020166286292
Time = 0.012

PIMPLE: iteration 1
time step continuity errors : sum local = 1.211071776113915e-08, global = 8.713377146461535e-10, cumulative = 9.758875902984269e-09
time step continuity errors : sum local = 7.856493254735205e-13, global = 4.684063302480319e-14, cumulative = 9.758922743617293e-09
PIMPLE: iteration 2
time step continuity errors : sum local = 1.171989201580103e-08, global = 9.107103765105219e-10, cumulative = 1.066963312012782e-08
time step continuity errors : sum local = 7.38585380207919e-13, global = 6.03379352859713e-14, cumulative = 1.06696934580631e-08
PIMPLE: iteration 3
time step continuity errors : sum local = 5.775363265428854e-09, global = 3.931533513946567e-10, cumulative = 1.106284680945776e-08
time step continuity errors : sum local = 8.057820579755187e-13, global = 1.135301579183691e-13, cumulative = 1.106296033961568e-08
PIMPLE: iteration 4
time step continuity errors : sum local = 5.469888628634473e-09, global = -1.295684013660827e-10, cumulative = 1.093339193824959e-08
time step continuity errors : sum local = 8.249225749667544e-13, global = -2.759387477708864e-14, cumulative = 1.093336434437482e-08
PIMPLE: iteration 5
time step continuity errors : sum local = 1.760634576991094e-08, global = -1.156137830959715e-09, cumulative = 9.777226513415103e-09
time step continuity errors : sum local = 7.919217024964909e-13, global = 4.325042566822711e-14, cumulative = 9.777269763840771e-09
bounding nuTilda, min: -5.826429003551189e-05 max: 0.3031593757625345 average: 0.02398469472610078
PIMPLE: not converged within 5 iterations
ExecutionTime = 9.18 s  ClockTime = 10 s

Courant Number mean: 0.0450758586295655 max: 256.6751755937173
Time = 0.013

PIMPLE: iteration 1
time step continuity errors : sum local = 1.181521266085248e-08, global = 8.361216883708511e-10, cumulative = 1.061339145221162e-08
time step continuity errors : sum local = 7.307315285666758e-13, global = 4.121314132559246e-14, cumulative = 1.061343266535295e-08
PIMPLE: iteration 2
time step continuity errors : sum local = 1.106157581837954e-08, global = 8.316796349841253e-10, cumulative = 1.144511230033707e-08
time step continuity errors : sum local = 8.490860841437315e-13, global = 5.711574928352721e-14, cumulative = 1.144516941608636e-08
PIMPLE: iteration 3
time step continuity errors : sum local = 5.673882103472327e-09, global = 3.541122150943316e-10, cumulative = 1.179928163118069e-08
time step continuity errors : sum local = 8.784531705240807e-13, global = 1.371260253121234e-13, cumulative = 1.1799418757206e-08
PIMPLE: iteration 4
time step continuity errors : sum local = 5.480251160854025e-09, global = -1.567565178652243e-10, cumulative = 1.164266223934077e-08
time step continuity errors : sum local = 9.163025786888535e-13, global = -3.420156008688078e-14, cumulative = 1.164262803778069e-08
PIMPLE: iteration 5
time step continuity errors : sum local = 1.696545721795898e-08, global = -1.073863969644077e-09, cumulative = 1.056876406813661e-08
time step continuity errors : sum local = 8.267104964190825e-13, global = 4.185553017687844e-14, cumulative = 1.056880592366679e-08
bounding nuTilda, min: -6.211360574934209e-05 max: 0.3032040206933504 average: 0.02401121684833279
PIMPLE: not converged within 5 iterations
ExecutionTime = 9.92 s  ClockTime = 10 s

Courant Number mean: 0.04505378875453975 max: 260.6156603466719
Time = 0.014

PIMPLE: iteration 1
time step continuity errors : sum local = 1.149012497579518e-08, global = 7.895756054664142e-10, cumulative = 1.13583815291332e-08
time step continuity errors : sum local = 8.302616450457069e-13, global = 4.973668211945232e-14, cumulative = 1.135843126581532e-08
PIMPLE: iteration 2
time step continuity errors : sum local = 1.042448358025498e-08, global = 7.478551849201051e-10, cumulative = 1.210628645073543e-08
time step continuity errors : sum local = 7.845596479011107e-13, global = 6.035301806751225e-14, cumulative = 1.210634680375349e-08
PIMPLE: iteration 3
time step continuity errors : sum local = 5.508982958422415e-09, global = 3.272119498890542e-10, cumulative = 1.243355875364255e-08
time step continuity errors : sum local = 8.806895604213402e-13, global = 1.220804260474495e-13, cumulative = 1.24336808340686e-08
PIMPLE: iteration 4
time step continuity errors : sum local = 5.578666703334137e-09, global = -1.998813361627433e-10, cumulative = 1.223379949790585e-08
time step continuity errors : sum local = 8.582258637904151e-13, global = -4.069149865160113e-14, cumulative = 1.22337588064072e-08
PIMPLE: iteration 5
time step continuity errors : sum local = 1.630279946533774e-08, global = -1.015197476613136e-09, cumulative = 1.121856132979406e-08
time step continuity errors : sum local = 9.244221989221149e-13, global = 3.838578965090907e-14, cumulative = 1.121859971558372e-08
bounding nuTilda, min: -6.621095334621038e-05 max: 0.3031456261218377 average: 0.02402644917715023
PIMPLE: not converged within 5 iterations
ExecutionTime = 10.68 s  ClockTime = 11 s

Courant Number mean: 0.04503185406706497 max: 264.7120905326963
Time = 0.015

PIMPLE: iteration 1
time step continuity errors : sum local = 1.706213063253484e-08, global = 1.19705879295331e-09, cumulative = 1.241565850853703e-08
time step continuity errors : sum local = 7.899967521148038e-13, global = 5.577761693804612e-14, cumulative = 1.241571428615396e-08
PIMPLE: iteration 2
time step continuity errors : sum local = 9.812484981828713e-09, global = 6.661172118276163e-10, cumulative = 1.308183149798158e-08
time step continuity errors : sum local = 7.513617040233026e-13, global = 5.270649427004178e-14, cumulative = 1.308188420447585e-08
PIMPLE: iteration 3
time step continuity errors : sum local = 5.310575472250033e-09, global = 3.047912612015718e-10, cumulative = 1.338667546567742e-08
time step continuity errors : sum local = 8.070064970017064e-13, global = 1.26638634132659e-13, cumulative = 1.338680210431155e-08
PIMPLE: iteration 4
time step continuity errors : sum local = 5.521669139119878e-09, global = -2.254722872530673e-10, cumulative = 1.316132981705848e-08
time step continuity errors : sum local = 8.882853807488897e-13, global = -4.152838225321809e-14, cumulative = 1.316128828867623e-08
PIMPLE: iteration 5
time step continuity errors : sum local = 1.5622122146863e-08, global = -9.699889054039651e-10, cumulative = 1.219129938327227e-08
time step continuity errors : sum local = 8.463507549941092e-13, global = 2.629958780450426e-14, cumulative = 1.219132568286007e-08
bounding nuTilda, min: -5.94372711304145e-05 max: 0.3029824670157278 average: 0.0240312002575746
PIMPLE: not converged within 5 iterations
ExecutionTime = 11.43 s  ClockTime = 12 s

Courant Number mean: 0.04500957052206632 max: 268.9213800194988
Time = 0.016

PIMPLE: iteration 1
time step continuity errors : sum local = 1.630821023868204e-08, global = 1.106564898501596e-09, cumulative = 1.329789058136167e-08
time step continuity errors : sum local = 7.148689439106529e-13, global = 5.690081270364029e-14, cumulative = 1.329794748217437e-08
PIMPLE: iteration 2
time step continuity errors : sum local = 9.35248918871348e-09, global = 5.911849619372465e-10, cumulative = 1.388913244411162e-08
time step continuity errors : sum local = 8.388327268742506e-13, global = 6.169616987059305e-14, cumulative = 1.388919414028149e-08
PIMPLE: iteration 3
time step continuity errors : sum local = 5.199444171507267e-09, global = 2.853666658612957e-10, cumulative = 1.417456080614278e-08
time step continuity errors : sum local = 8.773721521848867e-13, global = 1.333019489984481e-13, cumulative = 1.417469410809178e-08
PIMPLE: iteration 4
time step continuity errors : sum local = 5.383131503144941e-09, global = -2.304156028824416e-10, cumulative = 1.394427850520934e-08
time step continuity errors : sum local = 9.362584909046817e-13, global = -5.142015343424188e-14, cumulative = 1.394422708505591e-08
PIMPLE: iteration 5
time step continuity errors : sum local = 1.48593551897202e-08, global = -9.15680224096426e-10, cumulative = 1.302854686095948e-08
time step continuity errors : sum local = 7.752319166348069e-13, global = 1.203457338465613e-14, cumulative = 1.302855889553286e-08
bounding nuTilda, min: -6.526363469245415e-05 max: 0.3027130373671096 average: 0.02402508181510048
PIMPLE: not converged within 5 iterations
ExecutionTime = 12.18 s  ClockTime = 13 s

Courant Number mean: 0.04498724993670863 max: 273.1099188859454
Time = 0.017

PIMPLE: iteration 1
time step continuity errors : sum local = 1.579703551623153e-08, global = 1.039696908457178e-09, cumulative = 1.406825580399004e-08
time step continuity errors : sum local = 7.975727268414191e-13, global = 8.396628621925314e-14, cumulative = 1.406833977027626e-08
PIMPLE: iteration 2
time step continuity errors : sum local = 9.132667453140675e-09, global = 5.459432200591625e-10, cumulative = 1.461428299033542e-08
time step continuity errors : sum local = 8.779914752626123e-13, global = 8.373423791492294e-14, cumulative = 1.461436672457334e-08
PIMPLE: iteration 3
time step continuity errors : sum local = 5.127601062102067e-09, global = 2.654995381626517e-10, cumulative = 1.487986626273599e-08
time step continuity errors : sum local = 8.977880394710476e-13, global = 1.398155759183812e-13, cumulative = 1.488000607831191e-08
PIMPLE: iteration 4
time step continuity errors : sum local = 5.111046114273083e-09, global = -2.119164905153567e-10, cumulative = 1.466808958779655e-08
time step continuity errors : sum local = 9.376967907073909e-13, global = -4.474707031330646e-14, cumulative = 1.466804484072624e-08
PIMPLE: iteration 5
time step continuity errors : sum local = 1.434173795058071e-08, global = -8.650054219121677e-10, cumulative = 1.380303941881407e-08
time step continuity errors : sum local = 8.737725979502742e-13, global = 5.621724736389414e-15, cumulative = 1.380304504053881e-08
bounding nuTilda, min: -6.238720561374479e-05 max: 0.3023296240793389 average: 0.0240084186454335
PIMPLE: not converged within 5 iterations
ExecutionTime = 12.95 s  ClockTime = 13 s

Courant Number mean: 0.04496501699743944 max: 277.2326353791425
Time = 0.018

PIMPLE: iteration 1
time step continuity errors : sum local = 1.524348273878523e-08, global = 9.66292495333006e-10, cumulative = 1.476933753587181e-08
time step continuity errors : sum local = 7.707969185144807e-13, global = 9.098470930781384e-14, cumulative = 1.476942852058112e-08
PIMPLE: iteration 2
time step continuity errors : sum local = 9.035451821487705e-09, global = 5.10954294708227e-10, cumulative = 1.528038281528935e-08
time step continuity errors : sum local = 8.798421535826809e-13, global = 9.661948573744295e-14, cumulative = 1.528047943477508e-08
PIMPLE: iteration 3
time step continuity errors : sum local = 5.096527910762403e-09, global = 2.267567410527071e-10, cumulative = 1.550723617582779e-08
time step continuity errors : sum local = 7.797402396240389e-13, global = 1.389595882541016e-13, cumulative = 1.550737513541605e-08
PIMPLE: iteration 4
time step continuity errors : sum local = 5.00020862725365e-09, global = -1.912451988089543e-10, cumulative = 1.531612993660709e-08
time step continuity errors : sum local = 7.973756839611176e-13, global = -4.611212006875464e-14, cumulative = 1.531608382448702e-08
PIMPLE: iteration 5
time step continuity errors : sum local = 1.402657471799054e-08, global = -8.055011553674143e-10, cumulative = 1.451058266911961e-08
time step continuity errors : sum local = 9.215662873334535e-13, global = -3.887625558850624e-15, cumulative = 1.451057878149405e-08
bounding nuTilda, min: -5.005584069874793e-05 max: 0.3018201847776857 average: 0.02398140208698658
PIMPLE: not converged within 5 iterations
ExecutionTime = 13.71 s  ClockTime = 14 s

Courant Number mean: 0.04494342666209088 max: 281.1758775281326
Time = 0.019

PIMPLE: iteration 1
time step continuity errors : sum local = 1.491286667348968e-08, global = 9.201806878954509e-10, cumulative = 1.54307594693895e-08
time step continuity errors : sum local = 7.531211480810177e-13, global = 1.025386357891249e-13, cumulative = 1.543086200802529e-08
PIMPLE: iteration 2
time step continuity errors : sum local = 9.09521811304798e-09, global = 4.964493542695176e-10, cumulative = 1.592731136229481e-08
time step continuity errors : sum local = 8.305942014871716e-13, global = 1.05997450517855e-13, cumulative = 1.592741735974533e-08
PIMPLE: iteration 3
time step continuity errors : sum local = 5.208509355565921e-09, global = 1.957050915923768e-10, cumulative = 1.61231224513377e-08
time step continuity errors : sum local = 7.844202237536695e-13, global = 1.346089193056168e-13, cumulative = 1.612325706025701e-08
PIMPLE: iteration 4
time step continuity errors : sum local = 5.074349222415213e-09, global = -1.820309679556237e-10, cumulative = 1.594122609230139e-08
time step continuity errors : sum local = 8.479490808340202e-13, global = -4.578091629578626e-14, cumulative = 1.594118031138509e-08
PIMPLE: iteration 5
time step continuity errors : sum local = 1.413776316661658e-08, global = -7.693824916903313e-10, cumulative = 1.517179781969476e-08
time step continuity errors : sum local = 7.613237371963131e-13, global = -1.528549793388133e-14, cumulative = 1.517178253419683e-08
bounding nuTilda, min: -5.288870913670232e-05 max: 0.3018103595671938 average: 0.02394426619009643
PIMPLE: not converged within 5 iterations
ExecutionTime = 14.46 s  ClockTime = 15 s

Courant Number mean: 0.04492226029300764 max: 284.9242176675586
Time = 0.02

PIMPLE: iteration 1
time step continuity errors : sum local = 1.466208472603175e-08, global = 8.696776687957189e-10, cumulative = 1.604146020299255e-08
time step continuity errors : sum local = 8.194582591317626e-13, global = 1.191535545588045e-13, cumulative = 1.60415793565471e-08
PIMPLE: iteration 2
time step continuity errors : sum local = 9.144436150149372e-09, global = 4.758035695021846e-10, cumulative = 1.651738292604929e-08
time step continuity errors : sum local = 7.790351600082067e-13, global = 1.089249059043309e-13, cumulative = 1.65174918509552e-08
PIMPLE: iteration 3
time step continuity errors : sum local = 5.370756146952029e-09, global = 1.598029849004003e-10, cumulative = 1.66772948358556e-08
time step continuity errors : sum local = 8.838666385910412e-13, global = 1.501242287700705e-13, cumulative = 1.667744496008436e-08
PIMPLE: iteration 4
time step continuity errors : sum local = 5.236366483556835e-09, global = -1.885467085977503e-10, cumulative = 1.648889825148661e-08
time step continuity errors : sum local = 8.054820480507689e-13, global = -4.592935502810221e-14, cumulative = 1.648885232213159e-08
PIMPLE: iteration 5
time step continuity errors : sum local = 1.425558538917604e-08, global = -7.403603820167293e-10, cumulative = 1.574849194011485e-08
time step continuity errors : sum local = 8.614511255441167e-13, global = -4.163957745089905e-14, cumulative = 1.57484503005374e-08
bounding nuTilda, min: -3.902647678362289e-05 max: 0.3018865275875883 average: 0.02389802224742386
PIMPLE: not converged within 5 iterations
ExecutionTime = 15.22 s  ClockTime = 16 s

Courant Number mean: 0.0449021025789068 max: 288.4362826046011
Time = 0.021

PIMPLE: iteration 1
time step continuity errors : sum local = 1.466056368412668e-08, global = 8.40026717928582e-10, cumulative = 1.658847701846598e-08
time step continuity errors : sum local = 7.287702343087144e-13, global = 1.168849605753631e-13, cumulative = 1.658859390342656e-08
PIMPLE: iteration 2
time step continuity errors : sum local = 9.189411588279988e-09, global = 4.610088065308698e-10, cumulative = 1.704960270995743e-08
time step continuity errors : sum local = 8.282190341199819e-13, global = 1.280674059863879e-13, cumulative = 1.704973077736341e-08
PIMPLE: iteration 3
time step continuity errors : sum local = 5.448469331448525e-09, global = 1.432313624026409e-10, cumulative = 1.719296213976605e-08
time step continuity errors : sum local = 7.765799953292406e-13, global = 1.355472395499567e-13, cumulative = 1.71930976870056e-08
PIMPLE: iteration 4
time step continuity errors : sum local = 5.321934200172415e-09, global = -1.914842622594427e-10, cumulative = 1.700161342474616e-08
time step continuity errors : sum local = 8.396545773783721e-13, global = -5.300094654454943e-14, cumulative = 1.700156042379962e-08
PIMPLE: iteration 5
time step continuity errors : sum local = 1.45419860503272e-08, global = -7.247189991240739e-10, cumulative = 1.627684142467554e-08
time step continuity errors : sum local = 7.686537612668899e-13, global = -6.287636223217517e-14, cumulative = 1.627677854831331e-08
bounding nuTilda, min: -2.086130045397501e-05 max: 0.3020517805615881 average: 0.02384280074635281
PIMPLE: not converged within 5 iterations
ExecutionTime = 15.96 s  ClockTime = 16 s

Courant Number mean: 0.04488358690287931 max: 291.7625979589284
Time = 0.022

PIMPLE: iteration 1
time step continuity errors : sum local = 1.472867679662758e-08, global = 7.940505646939443e-10, cumulative = 1.707082911300725e-08
time step continuity errors : sum local = 7.458348754426252e-13, global = 1.250643070764068e-13, cumulative = 1.707095417731433e-08
PIMPLE: iteration 2
time step continuity errors : sum local = 9.180087171622535e-09, global = 4.310064619474678e-10, cumulative = 1.75019606392618e-08
time step continuity errors : sum local = 8.635064689158238e-13, global = 1.395239767515944e-13, cumulative = 1.750210016323855e-08
PIMPLE: iteration 3
time step continuity errors : sum local = 5.444486445582421e-09, global = 8.338191297798925e-11, cumulative = 1.758548207621654e-08
time step continuity errors : sum local = 7.766798998410599e-13, global = 1.111160341890758e-13, cumulative = 1.758559319225073e-08
PIMPLE: iteration 4
time step continuity errors : sum local = 5.329207851762691e-09, global = -1.983743245530905e-10, cumulative = 1.738721886769764e-08
time step continuity errors : sum local = 7.780724808749439e-13, global = -5.447486154352767e-14, cumulative = 1.738716439283609e-08
PIMPLE: iteration 5
time step continuity errors : sum local = 1.487918880316429e-08, global = -7.080746965284014e-10, cumulative = 1.667908969630769e-08
time step continuity errors : sum local = 8.82708005677477e-13, global = -1.091830510768035e-13, cumulative = 1.667898051325662e-08
bounding nuTilda, min: -1.273718235138071e-05 max: 0.3023552374509281 average: 0.02378021375560349
PIMPLE: not converged within 5 iterations
ExecutionTime = 16.71 s  ClockTime = 17 s

Courant Number mean: 0.04486723102615748 max: 294.9106621178436
Time = 0.023

PIMPLE: iteration 1
time step continuity errors : sum local = 1.497884959016061e-08, global = 7.635424308353264e-10, cumulative = 1.744252294409194e-08
time step continuity errors : sum local = 7.48060750023748e-13, global = 1.332446980257439e-13, cumulative = 1.744265618878997e-08
PIMPLE: iteration 2
time step continuity errors : sum local = 9.293105432246463e-09, global = 4.083379226359768e-10, cumulative = 1.785099411142595e-08
time step continuity errors : sum local = 8.545538394914534e-13, global = 1.481668469524623e-13, cumulative = 1.78511422782729e-08
PIMPLE: iteration 3
time step continuity errors : sum local = 5.340049240945919e-09, global = 2.716799719937166e-11, cumulative = 1.787831027547227e-08
time step continuity errors : sum local = 8.368859841709045e-13, global = 5.48159251225559e-14, cumulative = 1.78783650913974e-08
PIMPLE: iteration 4
time step continuity errors : sum local = 5.32398983738916e-09, global = -2.074670261654938e-10, cumulative = 1.76708980652319e-08
time step continuity errors : sum local = 8.198417360716613e-13, global = -6.684898287455603e-14, cumulative = 1.767083121624903e-08
PIMPLE: iteration 5
time step continuity errors : sum local = 1.535847294652243e-08, global = -6.828701901378576e-10, cumulative = 1.698796102611117e-08
time step continuity errors : sum local = 9.306093346604057e-13, global = -1.253411872707646e-13, cumulative = 1.69878356849239e-08
PIMPLE: not converged within 5 iterations
ExecutionTime = 17.47 s  ClockTime = 18 s

Courant Number mean: 0.04485269190230553 max: 297.9699930103892
Time = 0.024

PIMPLE: iteration 1
time step continuity errors : sum local = 1.512997187658717e-08, global = 7.227318235910795e-10, cumulative = 1.771056750851498e-08
time step continuity errors : sum local = 7.411353920640815e-13, global = 1.36287848726755e-13, cumulative = 1.77107037963637e-08
PIMPLE: iteration 2
time step continuity errors : sum local = 9.449036237888095e-09, global = 3.759833388267979e-10, cumulative = 1.80866871351905e-08
time step continuity errors : sum local = 8.515608912412215e-13, global = 1.53041425834186e-13, cumulative = 1.808684017661634e-08
PIMPLE: iteration 3
time step continuity errors : sum local = 5.305059755201167e-09, global = -3.269365379099418e-11, cumulative = 1.805414652282534e-08
time step continuity errors : sum local = 7.646605458688799e-13, global = -3.56304860730341e-14, cumulative = 1.805411089233927e-08
PIMPLE: iteration 4
time step continuity errors : sum local = 5.386018550167771e-09, global = -2.215762165500334e-10, cumulative = 1.783253467578923e-08
time step continuity errors : sum local = 7.681790503341244e-13, global = -6.997000298670103e-14, cumulative = 1.783246470578625e-08
PIMPLE: iteration 5
time step continuity errors : sum local = 1.587386170253314e-08, global = -6.176889236532988e-10, cumulative = 1.721477578213295e-08
time step continuity errors : sum local = 8.48219711210609e-13, global = -1.364586373845935e-13, cumulative = 1.721463932349556e-08
PIMPLE: not converged within 5 iterations
ExecutionTime = 18.23 s  ClockTime = 19 s

Courant Number mean: 0.04484001819601143 max: 300.9478437061293
Time = 0.025

PIMPLE: iteration 1
time step continuity errors : sum local = 1.54766345991929e-08, global = 6.944156742092364e-10, cumulative = 1.79090549977048e-08
time step continuity errors : sum local = 7.289998858738768e-13, global = 1.395794275048098e-13, cumulative = 1.790919457713231e-08
PIMPLE: iteration 2
time step continuity errors : sum local = 9.575764206796783e-09, global = 3.374433593272668e-10, cumulative = 1.824663793645957e-08
time step continuity errors : sum local = 8.315592295244131e-13, global = 1.565769479309473e-13, cumulative = 1.82467945134075e-08
PIMPLE: iteration 3
time step continuity errors : sum local = 5.133819912715211e-09, global = -8.025150579734588e-11, cumulative = 1.816654300761016e-08
time step continuity errors : sum local = 7.898263665049887e-13, global = -7.180073928253787e-14, cumulative = 1.816647120687087e-08
PIMPLE: iteration 4
time step continuity errors : sum local = 5.370534377805494e-09, global = -2.338421225339782e-10, cumulative = 1.793262908433689e-08
time step continuity errors : sum local = 7.907557697377211e-13, global = -8.031576308971438e-14, cumulative = 1.79325487685738e-08
PIMPLE: iteration 5
time step continuity errors : sum local = 1.619982383315352e-08, global = -4.960619655108355e-10, cumulative = 1.743648680306297e-08
time step continuity errors : sum local = 8.82660374175511e-13, global = -1.367227417151602e-13, cumulative = 1.743635008032125e-08
PIMPLE: not converged within 5 iterations
ExecutionTime = 18.99 s  ClockTime = 19 s

Courant Number mean: 0.0448286200454405 max: 303.9262160250381
Time = 0.026

PIMPLE: iteration 1
time step continuity errors : sum local = 1.557538289333552e-08, global = 6.528355702776821e-10, cumulative = 1.808918565059894e-08
time step continuity errors : sum local = 8.470136354443083e-13, global = 1.648011059869495e-13, cumulative = 1.808935045170492e-08
PIMPLE: iteration 2
time step continuity errors : sum local = 9.555117534115289e-09, global = 2.789979094607083e-10, cumulative = 1.836834836116563e-08
time step continuity errors : sum local = 8.036108565331126e-13, global = 1.541339956517214e-13, cumulative = 1.836850249516128e-08
PIMPLE: iteration 3
time step continuity errors : sum local = 5.116798958170899e-09, global = -1.260303778959172e-10, cumulative = 1.824247211726537e-08
time step continuity errors : sum local = 7.947508018265872e-13, global = -7.969638088879537e-14, cumulative = 1.824239242088448e-08
PIMPLE: iteration 4
time step continuity errors : sum local = 5.343403828804504e-09, global = -2.460116682766499e-10, cumulative = 1.799638075260783e-08
time step continuity errors : sum local = 7.632459798838095e-13, global = -8.709584528580306e-14, cumulative = 1.799629365676254e-08
PIMPLE: iteration 5
time step continuity errors : sum local = 1.641991442100474e-08, global = -3.2232879132865e-10, cumulative = 1.767396486543389e-08
time step continuity errors : sum local = 7.973808688991271e-13, global = -1.38242004731959e-13, cumulative = 1.767382662342916e-08
PIMPLE: not converged within 5 iterations
ExecutionTime = 19.73 s  ClockTime = 20 s

Courant Number mean: 0.04481824947093632 max: 306.8784714302701
Time = 0.027

PIMPLE: iteration 1
time step continuity errors : sum local = 1.576058691213854e-08, global = 6.0452003143393e-10, cumulative = 1.827834665486309e-08
time step continuity errors : sum local = 8.350129016682858e-13, global = 1.683810340516367e-13, cumulative = 1.827851503589714e-08
PIMPLE: iteration 2
time step continuity errors : sum local = 9.621544912732735e-09, global = 2.19405606914431e-10, cumulative = 1.849792064281157e-08
time step continuity errors : sum local = 8.063634727059164e-13, global = 1.60249692108528e-13, cumulative = 1.849808089250368e-08
PIMPLE: iteration 3
time step continuity errors : sum local = 5.122653518812768e-09, global = -1.575898974897399e-10, cumulative = 1.834049099501394e-08
time step continuity errors : sum local = 7.469334994113063e-13, global = -8.910091067684624e-14, cumulative = 1.834040189410326e-08
PIMPLE: iteration 4
time step continuity errors : sum local = 5.38441397575268e-09, global = -2.54799833013258e-10, cumulative = 1.808560206109e-08
time step continuity errors : sum local = 7.601245269470795e-13, global = -9.056911318372826e-14, cumulative = 1.808551149197682e-08
PIMPLE: iteration 5
time step continuity errors : sum local = 1.659540692956326e-08, global = -1.307346567479506e-10, cumulative = 1.795477683522887e-08
time step continuity errors : sum local = 8.273867576676621e-13, global = -1.330936665844172e-13, cumulative = 1.795464374156229e-08
PIMPLE: not converged within 5 iterations
ExecutionTime = 20.49 s  ClockTime = 21 s

Courant Number mean: 0.04480868716330116 max: 309.8680218484668
Time = 0.028

PIMPLE: iteration 1
time step continuity errors : sum local = 1.580850592434613e-08, global = 5.462624326162429e-10, cumulative = 1.850090617417853e-08
time step continuity errors : sum local = 7.902746891209782e-13, global = 1.625594408950098e-13, cumulative = 1.850106873361942e-08
PIMPLE: iteration 2
time step continuity errors : sum local = 9.645016445832536e-09, global = 1.656552122909969e-10, cumulative = 1.866672394591042e-08
time step continuity errors : sum local = 7.481721726925441e-13, global = 1.495637409589059e-13, cumulative = 1.866687350965138e-08
PIMPLE: iteration 3
time step continuity errors : sum local = 5.181021130067033e-09, global = -1.813526183696163e-10, cumulative = 1.848552089128176e-08
time step continuity errors : sum local = 8.457331535045621e-13, global = -7.825245720000954e-14, cumulative = 1.848544263882456e-08
PIMPLE: iteration 4
time step continuity errors : sum local = 5.478964575957053e-09, global = -2.575364055834866e-10, cumulative = 1.822790623324108e-08
time step continuity errors : sum local = 7.952949460540877e-13, global = -1.067263307026604e-13, cumulative = 1.822779950691037e-08
PIMPLE: iteration 5
time step continuity errors : sum local = 1.681592939649807e-08, global = 5.707184413097168e-11, cumulative = 1.828487135104134e-08
time step continuity errors : sum local = 9.185371361472558e-13, global = -1.60502137289326e-13, cumulative = 1.828471084890405e-08
PIMPLE: not converged within 5 iterations
ExecutionTime = 21.24 s  ClockTime = 22 s

Courant Number mean: 0.04479975435781142 max: 312.8512063175872
Time = 0.029

PIMPLE: iteration 1
time step continuity errors : sum local = 1.593131857273072e-08, global = 4.590542182107258e-10, cumulative = 1.874376506711478e-08
time step continuity errors : sum local = 7.849677937735782e-13, global = 1.649013625460901e-13, cumulative = 1.874392996847733e-08
PIMPLE: iteration 2
time step continuity errors : sum local = 9.8082699470291e-09, global = 9.032553176453879e-11, cumulative = 1.883425550024187e-08
time step continuity errors : sum local = 7.775402346543131e-13, global = 1.588685052028984e-13, cumulative = 1.883441436874707e-08
PIMPLE: iteration 3
time step continuity errors : sum local = 5.279983172435661e-09, global = -2.183861364355689e-10, cumulative = 1.86160282323115e-08
time step continuity errors : sum local = 8.790707219747926e-13, global = -1.026486051741678e-13, cumulative = 1.861592558370632e-08
PIMPLE: iteration 4
time step continuity errors : sum local = 5.586098758124055e-09, global = -2.635514476988123e-10, cumulative = 1.835237413600751e-08
time step continuity errors : sum local = 7.484405879624252e-13, global = -9.75785029937853e-14, cumulative = 1.835227655750452e-08
PIMPLE: iteration 5
time step continuity errors : sum local = 1.696248737765956e-08, global = 2.112411617712574e-10, cumulative = 1.856351771927578e-08
time step continuity errors : sum local = 7.816323870468049e-13, global = -1.267407470065956e-13, cumulative = 1.856339097852877e-08
PIMPLE: not converged within 5 iterations
ExecutionTime = 21.98 s  ClockTime = 22 s

Courant Number mean: 0.04479149858197735 max: 315.8709334561552
Time = 0.03

PIMPLE: iteration 1
time step continuity errors : sum local = 1.58941658059549e-08, global = 3.721992033177623e-10, cumulative = 1.893559018184653e-08
time step continuity errors : sum local = 7.445421691150934e-13, global = 1.572603088384107e-13, cumulative = 1.893574744215537e-08
PIMPLE: iteration 2
time step continuity errors : sum local = 9.829459213966121e-09, global = 3.802879185276933e-11, cumulative = 1.897377623400814e-08
time step continuity errors : sum local = 8.567225222940101e-13, global = 1.709019784637453e-13, cumulative = 1.89739471359866e-08
PIMPLE: iteration 3
time step continuity errors : sum local = 5.337981515189174e-09, global = -2.400606374344266e-10, cumulative = 1.873388649855218e-08
time step continuity errors : sum local = 7.555516298462877e-13, global = -6.398872515186286e-14, cumulative = 1.873382250982703e-08
PIMPLE: iteration 4
time step continuity errors : sum local = 5.622211186485474e-09, global = -2.57568704388774e-10, cumulative = 1.847625380543825e-08
time step continuity errors : sum local = 8.011725293974448e-13, global = -1.160847707309511e-13, cumulative = 1.847613772066752e-08
PIMPLE: iteration 5
time step continuity errors : sum local = 1.703251291119294e-08, global = 3.314724956777288e-10, cumulative = 1.880761021634525e-08
time step continuity errors : sum local = 8.624072983516165e-13, global = -1.49700332260405e-13, cumulative = 1.880746051601299e-08
PIMPLE: not converged within 5 iterations
ExecutionTime = 22.73 s  ClockTime = 23 s

Courant Number mean: 0.0447841895882636 max: 318.8690454693924
Time = 0.031

PIMPLE: iteration 1
time step continuity errors : sum local = 1.585958855983481e-08, global = 2.872792423703177e-10, cumulative = 1.909473975838331e-08
time step continuity errors : sum local = 7.393182654386476e-13, global = 1.582215970947329e-13, cumulative = 1.90948979799804e-08
PIMPLE: iteration 2
time step continuity errors : sum local = 9.906853487728387e-09, global = -1.002450381332815e-11, cumulative = 1.908487347616708e-08
time step continuity errors : sum local = 7.412191119868256e-13, global = 1.524608876018741e-13, cumulative = 1.908502593705468e-08
PIMPLE: iteration 3
time step continuity errors : sum local = 5.272769480043209e-09, global = -2.552963311524718e-10, cumulative = 1.882972960590221e-08
time step continuity errors : sum local = 8.147552358268184e-13, global = -8.90227719401984e-14, cumulative = 1.882964058313027e-08
PIMPLE: iteration 4
time step continuity errors : sum local = 5.530908297826739e-09, global = -2.505355824245645e-10, cumulative = 1.857910500070571e-08
time step continuity errors : sum local = 7.480052836962592e-13, global = -1.039007246957177e-13, cumulative = 1.857900109998101e-08
PIMPLE: iteration 5
time step continuity errors : sum local = 1.712352336840871e-08, global = 4.059674342336916e-10, cumulative = 1.89849685342147e-08
time step continuity errors : sum local = 9.367813466426514e-13, global = -1.418195088489203e-13, cumulative = 1.898482671470585e-08
PIMPLE: not converged within 5 iterations
ExecutionTime = 23.48 s  ClockTime = 24 s

Courant Number mean: 0.04477755997524174 max: 321.893511711584
Time = 0.032

PIMPLE: iteration 1
time step continuity errors : sum local = 1.582057529763168e-08, global = 1.923584125057397e-10, cumulative = 1.917718512721159e-08
time step continuity errors : sum local = 8.556265311418218e-13, global = 1.795964888432909e-13, cumulative = 1.917736472370044e-08
PIMPLE: iteration 2
time step continuity errors : sum local = 9.845700399571562e-09, global = -6.253260021257911e-11, cumulative = 1.911483212348786e-08
time step continuity errors : sum local = 8.412076653955382e-13, global = 1.579986506272166e-13, cumulative = 1.911499012213848e-08
PIMPLE: iteration 3
time step continuity errors : sum local = 5.127439664512294e-09, global = -2.542497391141044e-10, cumulative = 1.886074038302438e-08
time step continuity errors : sum local = 8.897482777662227e-13, global = -6.99714489718828e-14, cumulative = 1.886067041157541e-08
PIMPLE: iteration 4
time step continuity errors : sum local = 5.509369247596212e-09, global = -2.595341208936104e-10, cumulative = 1.86011362906818e-08
time step continuity errors : sum local = 7.766219979907454e-13, global = -1.177718232503522e-13, cumulative = 1.860101851885855e-08
PIMPLE: iteration 5
time step continuity errors : sum local = 1.718634458690082e-08, global = 4.403968278626765e-10, cumulative = 1.904141534672122e-08
time step continuity errors : sum local = 8.303628304790292e-13, global = -9.280451732070471e-14, cumulative = 1.90413225422039e-08
PIMPLE: not converged within 5 iterations
ExecutionTime = 24.23 s  ClockTime = 25 s

Courant Number mean: 0.04477172108581522 max: 324.8922357479079
Time = 0.033

PIMPLE: iteration 1
time step continuity errors : sum local = 1.591133770207569e-08, global = 1.253157643438264e-10, cumulative = 1.916663830654773e-08
time step continuity errors : sum local = 8.569131980809332e-13, global = 1.788681344020322e-13, cumulative = 1.916681717468213e-08
PIMPLE: iteration 2
time step continuity errors : sum local = 9.868575798263827e-09, global = -9.750930618096086e-11, cumulative = 1.906930786850117e-08
time step continuity errors : sum local = 7.572481733185796e-13, global = 1.311203696121274e-13, cumulative = 1.906943898887078e-08
PIMPLE: iteration 3
time step continuity errors : sum local = 4.906435516057032e-09, global = -2.412248742861401e-10, cumulative = 1.882821411458464e-08
time step continuity errors : sum local = 7.334874977843703e-13, global = -7.867156673396723e-14, cumulative = 1.882813544301791e-08
PIMPLE: iteration 4
time step continuity errors : sum local = 5.582748028809823e-09, global = -2.916995451781496e-10, cumulative = 1.853643589783976e-08
time step continuity errors : sum local = 7.430128013640744e-13, global = -1.097501764909885e-13, cumulative = 1.853632614766327e-08
PIMPLE: iteration 5
time step continuity errors : sum local = 1.718350803472117e-08, global = 4.456508246799018e-10, cumulative = 1.898197697234317e-08
time step continuity errors : sum local = 8.221802777720841e-13, global = 4.547736578830063e-14, cumulative = 1.898202244970895e-08
PIMPLE: not converged within 5 iterations
ExecutionTime = 24.99 s  ClockTime = 25 s

Courant Number mean: 0.04476684835908231 max: 327.9065028202401
Time = 0.034

PIMPLE: iteration 1
time step continuity errors : sum local = 1.609907947106687e-08, global = 4.820373311149201e-11, cumulative = 1.903022618282045e-08
time step continuity errors : sum local = 8.408685430928479e-13, global = 1.710010288413181e-13, cumulative = 1.903039718384929e-08
PIMPLE: iteration 2
time step continuity errors : sum local = 9.966549234368184e-09, global = -1.451429045105226e-10, cumulative = 1.888525427933877e-08
time step continuity errors : sum local = 7.538544611490067e-13, global = 8.345405015699246e-14, cumulative = 1.888533773338892e-08
PIMPLE: iteration 3
time step continuity errors : sum local = 4.844036015195379e-09, global = -2.349936120042479e-10, cumulative = 1.865034412138468e-08
time step continuity errors : sum local = 8.016521050713985e-13, global = -6.225798286717288e-14, cumulative = 1.865028186340181e-08
PIMPLE: iteration 4
time step continuity errors : sum local = 5.65558182698743e-09, global = -3.153389621159202e-10, cumulative = 1.833494290128589e-08
time step continuity errors : sum local = 7.674343109376696e-13, global = -1.207590622391076e-13, cumulative = 1.833482214222365e-08
PIMPLE: iteration 5
time step continuity errors : sum local = 1.716248887979992e-08, global = 4.29880629414611e-10, cumulative = 1.876470277163826e-08
time step continuity errors : sum local = 8.413508320164247e-13, global = 1.279143412796629e-13, cumulative = 1.876483068597954e-08
PIMPLE: not converged within 5 iterations
ExecutionTime = 25.73 s  ClockTime = 26 s

Courant Number mean: 0.04476297767490601 max: 330.8805851788806
Time = 0.035

PIMPLE: iteration 1
time step continuity errors : sum local = 1.630441427475012e-08, global = 1.122743767338205e-11, cumulative = 1.877605812365292e-08
time step continuity errors : sum local = 8.489282412433045e-13, global = 1.695917816719949e-13, cumulative = 1.877622771543459e-08
PIMPLE: iteration 2
time step continuity errors : sum local = 1.023831256674705e-08, global = -1.717984931762335e-10, cumulative = 1.860442922225836e-08
time step continuity errors : sum local = 8.096315552473442e-13, global = 5.629374088477928e-14, cumulative = 1.860448551599925e-08
PIMPLE: iteration 3
time step continuity errors : sum local = 4.894331507193165e-09, global = -2.398054668739352e-10, cumulative = 1.836468004912531e-08
time step continuity errors : sum local = 8.104829491965578e-13, global = -8.437836831490014e-14, cumulative = 1.8364595670757e-08
PIMPLE: iteration 4
time step continuity errors : sum local = 3.454900209257666e-09, global = -2.148820083438849e-10, cumulative = 1.814971366241311e-08
time step continuity errors : sum local = 7.367391157473532e-13, global = -1.117165221571242e-13, cumulative = 1.814960194589096e-08
PIMPLE: iteration 5
time step continuity errors : sum local = 1.720611491734106e-08, global = 3.951175632871943e-10, cumulative = 1.854471950917815e-08
time step continuity errors : sum local = 7.605694390050128e-13, global = 1.205158936169246e-13, cumulative = 1.854484002507177e-08
PIMPLE: not converged within 5 iterations
ExecutionTime = 26.49 s  ClockTime = 27 s

Courant Number mean: 0.04475997051340178 max: 333.8636169778535
Time = 0.036

PIMPLE: iteration 1
time step continuity errors : sum local = 1.643348433419833e-08, global = -3.340142949323343e-11, cumulative = 1.851143859557854e-08
time step continuity errors : sum local = 8.367982045304731e-13, global = 1.616319968304084e-13, cumulative = 1.851160022757537e-08
PIMPLE: iteration 2
time step continuity errors : sum local = 1.040474409007983e-08, global = -2.096270232430236e-10, cumulative = 1.830197320433234e-08
time step continuity errors : sum local = 7.691009190884385e-13, global = 3.100082855535145e-15, cumulative = 1.83019763044152e-08
PIMPLE: iteration 3
time step continuity errors : sum local = 5.031474557695339e-09, global = -2.482166634393139e-10, cumulative = 1.805375964097589e-08
time step continuity errors : sum local = 7.162102277769291e-13, global = -5.560973174974216e-14, cumulative = 1.805370403124414e-08
PIMPLE: iteration 4
time step continuity errors : sum local = 3.45914072313613e-09, global = -2.160991805390643e-10, cumulative = 1.783760485070507e-08
time step continuity errors : sum local = 7.581322436615372e-13, global = -1.202011157669203e-13, cumulative = 1.78374846495893e-08
PIMPLE: iteration 5
time step continuity errors : sum local = 1.741944893551368e-08, global = 3.535293766367221e-10, cumulative = 1.819101402622603e-08
time step continuity errors : sum local = 8.093807500067998e-13, global = 1.339388423326039e-13, cumulative = 1.819114796506836e-08
PIMPLE: not converged within 5 iterations
ExecutionTime = 27.23 s  ClockTime = 28 s

Courant Number mean: 0.04475813512394054 max: 336.8088375862498
Time = 0.037

PIMPLE: iteration 1
time step continuity errors : sum local = 1.658616592685202e-08, global = -4.691583916243258e-11, cumulative = 1.814423212590593e-08
time step continuity errors : sum local = 8.415907131397468e-13, global = 1.592915168739917e-13, cumulative = 1.81443914174228e-08
PIMPLE: iteration 2
time step continuity errors : sum local = 1.048911257162968e-08, global = -2.257057192899076e-10, cumulative = 1.79186856981329e-08
time step continuity errors : sum local = 7.906358032368228e-13, global = -2.135712329567966e-14, cumulative = 1.79186643410096e-08
PIMPLE: iteration 3
time step continuity errors : sum local = 5.116129112034172e-09, global = -2.517914873649582e-10, cumulative = 1.766687285364464e-08
time step continuity errors : sum local = 7.170211439618747e-13, global = -7.71650353526686e-14, cumulative = 1.766679568860929e-08
PIMPLE: iteration 4
time step continuity errors : sum local = 3.525962358823283e-09, global = -2.25031385865232e-10, cumulative = 1.744176430274406e-08
time step continuity errors : sum local = 7.582526525776171e-13, global = -1.156067799267842e-13, cumulative = 1.744164869596413e-08
PIMPLE: iteration 5
time step continuity errors : sum local = 1.76081595128596e-08, global = 3.045647669302072e-10, cumulative = 1.774621346289434e-08
time step continuity errors : sum local = 9.35744240520131e-13, global = 1.479683174411558e-13, cumulative = 1.774636143121178e-08
PIMPLE: not converged within 5 iterations
ExecutionTime = 27.98 s  ClockTime = 28 s

Courant Number mean: 0.04475739296785963 max: 339.7533654533776
Time = 0.038

PIMPLE: iteration 1
time step continuity errors : sum local = 1.660475249268836e-08, global = -6.201035085705545e-11, cumulative = 1.768435108035473e-08
time step continuity errors : sum local = 8.310175330839236e-13, global = 1.524761255616142e-13, cumulative = 1.768450355648029e-08
PIMPLE: iteration 2
time step continuity errors : sum local = 1.049876285701802e-08, global = -2.441689467804099e-10, cumulative = 1.744033460969988e-08
time step continuity errors : sum local = 8.810445668488365e-13, global = -4.734529216817256e-14, cumulative = 1.744028726440771e-08
PIMPLE: iteration 3
time step continuity errors : sum local = 5.204616148877718e-09, global = -2.6072167929083e-10, cumulative = 1.717956558511688e-08
time step continuity errors : sum local = 8.521376435438812e-13, global = -6.414481310549982e-14, cumulative = 1.717950144030378e-08
PIMPLE: iteration 4
time step continuity errors : sum local = 3.629161132563391e-09, global = -2.362969183026075e-10, cumulative = 1.694320452200117e-08
time step continuity errors : sum local = 7.725144593941075e-13, global = -1.214222931921966e-13, cumulative = 1.694308309970798e-08
PIMPLE: iteration 5
time step continuity errors : sum local = 1.793139107445046e-08, global = 2.472333604066069e-10, cumulative = 1.719031646011459e-08
time step continuity errors : sum local = 7.870866318296478e-13, global = 1.287516286252449e-13, cumulative = 1.719044521174321e-08
PIMPLE: not converged within 5 iterations
ExecutionTime = 28.73 s  ClockTime = 29 s

Courant Number mean: 0.04475788664351173 max: 342.6487036047005
Time = 0.039

PIMPLE: iteration 1
time step continuity errors : sum local = 1.669475259240487e-08, global = -5.504437154920146e-11, cumulative = 1.713540084019401e-08
time step continuity errors : sum local = 8.226944481019853e-13, global = 1.495760441404993e-13, cumulative = 1.713555041623815e-08
PIMPLE: iteration 2
time step continuity errors : sum local = 1.05225473897484e-08, global = -2.439933415890744e-10, cumulative = 1.689155707464907e-08
time step continuity errors : sum local = 7.404712649480992e-13, global = -4.673662236737714e-14, cumulative = 1.689151033802671e-08
PIMPLE: iteration 3
time step continuity errors : sum local = 5.114033467504628e-09, global = -2.628823096065774e-10, cumulative = 1.662862802842013e-08
time step continuity errors : sum local = 8.234736463999182e-13, global = -8.43612313646395e-14, cumulative = 1.662854366718876e-08
PIMPLE: iteration 4
time step continuity errors : sum local = 3.713673589442529e-09, global = -2.531309598526916e-10, cumulative = 1.637541270733607e-08
time step continuity errors : sum local = 7.784269056287725e-13, global = -1.184285505176338e-13, cumulative = 1.637529427878556e-08
PIMPLE: iteration 5
time step continuity errors : sum local = 1.829191885978618e-08, global = 1.800699011739874e-10, cumulative = 1.655536417995954e-08
time step continuity errors : sum local = 9.2452134333328e-13, global = 1.450601830689692e-13, cumulative = 1.655550924014261e-08
PIMPLE: not converged within 5 iterations
ExecutionTime = 29.48 s  ClockTime = 30 s

Courant Number mean: 0.04475919266226873 max: 345.5341590127979
Time = 0.04

PIMPLE: iteration 1
time step continuity errors : sum local = 1.682623123119521e-08, global = -2.667731601821004e-11, cumulative = 1.65288319241244e-08
time step continuity errors : sum local = 8.057000454586174e-13, global = 1.449149509988776e-13, cumulative = 1.65289768390754e-08
PIMPLE: iteration 2
time step continuity errors : sum local = 1.051992627681075e-08, global = -2.311224541222385e-10, cumulative = 1.629785438495317e-08
time step continuity errors : sum local = 8.488222178582655e-13, global = -4.682104846071155e-14, cumulative = 1.629780756390471e-08
PIMPLE: iteration 3
time step continuity errors : sum local = 5.033745859121457e-09, global = -2.619875029336796e-10, cumulative = 1.603582006097103e-08
time step continuity errors : sum local = 7.894568263248472e-13, global = -5.768555581378073e-14, cumulative = 1.603576237541521e-08
PIMPLE: iteration 4
time step continuity errors : sum local = 3.775689962449508e-09, global = -2.708071953670321e-10, cumulative = 1.576495518004818e-08
time step continuity errors : sum local = 7.860631194755535e-13, global = -1.228388728534472e-13, cumulative = 1.576483234117533e-08
PIMPLE: iteration 5
time step continuity errors : sum local = 1.096699231899406e-08, global = 1.73266911400011e-11, cumulative = 1.578215903231533e-08
time step continuity errors : sum local = 9.181255578164912e-13, global = 1.516452308804632e-13, cumulative = 1.578231067754621e-08
PIMPLE: not converged within 5 iterations
ExecutionTime = 30.23 s  ClockTime = 31 s

Courant Number mean: 0.04476142583158617 max: 348.3790296070763
Time = 0.041

PIMPLE: iteration 1
time step continuity errors : sum local = 1.694861544338951e-08, global = -1.619741849179296e-11, cumulative = 1.576611325905442e-08
time step continuity errors : sum local = 7.855488014331069e-13, global = 1.397692204588529e-13, cumulative = 1.576625302827487e-08
PIMPLE: iteration 2
time step continuity errors : sum local = 1.061563837627929e-08, global = -2.375820325704431e-10, cumulative = 1.552867099570443e-08
time step continuity errors : sum local = 8.415725308028914e-13, global = -5.647743553190332e-14, cumulative = 1.55286145182689e-08
PIMPLE: iteration 3
time step continuity errors : sum local = 5.013190575244002e-09, global = -2.627053073445456e-10, cumulative = 1.526590921092436e-08
time step continuity errors : sum local = 7.118870405637589e-13, global = -6.571620460419517e-14, cumulative = 1.526584349471975e-08
PIMPLE: iteration 4
time step continuity errors : sum local = 3.863885245778277e-09, global = -2.906803440043829e-10, cumulative = 1.497516315071537e-08
time step continuity errors : sum local = 8.082633508803628e-13, global = -1.229913636754129e-13, cumulative = 1.49750401593517e-08
PIMPLE: iteration 5
time step continuity errors : sum local = 1.119112665763166e-08, global = -2.287116279250674e-11, cumulative = 1.495216899655919e-08
time step continuity errors : sum local = 8.499580396648071e-13, global = 1.366257915721068e-13, cumulative = 1.495230562235076e-08
bounding nuTilda, min: -3.113244986329077e-05 max: 0.3029060191093514 average: 0.02177920548712202
PIMPLE: not converged within 5 iterations
ExecutionTime = 30.98 s  ClockTime = 31 s

Courant Number mean: 0.04476454014108399 max: 351.2053151451138
Time = 0.042

PIMPLE: iteration 1
time step continuity errors : sum local = 1.7112676033257e-08, global = -3.487354252832138e-12, cumulative = 1.494881826809793e-08
time step continuity errors : sum local = 7.636858821762693e-13, global = 1.352183029509323e-13, cumulative = 1.494895348640088e-08
PIMPLE: iteration 2
time step continuity errors : sum local = 1.075447797260004e-08, global = -2.3966583320395e-10, cumulative = 1.470928765319693e-08
time step continuity errors : sum local = 7.933258705003268e-13, global = -5.689144360214601e-14, cumulative = 1.470923076175332e-08
PIMPLE: iteration 3
time step continuity errors : sum local = 5.079193868342322e-09, global = -2.702379369157969e-10, cumulative = 1.443899282483753e-08
time step continuity errors : sum local = 9.020523170209134e-13, global = -5.880112035668468e-14, cumulative = 1.443893402371717e-08
PIMPLE: iteration 4
time step continuity errors : sum local = 3.961028942849592e-09, global = -3.056429461411001e-10, cumulative = 1.413329107757607e-08
time step continuity errors : sum local = 7.973960571530646e-13, global = -1.263155270114227e-13, cumulative = 1.413316476204906e-08
PIMPLE: iteration 5
time step continuity errors : sum local = 1.143896172979161e-08, global = -6.245901574256822e-11, cumulative = 1.407070574630649e-08
time step continuity errors : sum local = 8.780773960638408e-13, global = 1.438211467441853e-13, cumulative = 1.407084956745323e-08
bounding nuTilda, min: -4.974806343899199e-05 max: 0.3029863565031876 average: 0.02166879903147623
PIMPLE: not converged within 5 iterations
ExecutionTime = 31.73 s  ClockTime = 32 s

Courant Number mean: 0.04476868301260446 max: 353.9829846488629
Time = 0.043

PIMPLE: iteration 1
time step continuity errors : sum local = 1.730897739315671e-08, global = 1.720015087524496e-11, cumulative = 1.408804971832848e-08
time step continuity errors : sum local = 7.412604193355634e-13, global = 1.322315049042866e-13, cumulative = 1.408818194983338e-08
PIMPLE: iteration 2
time step continuity errors : sum local = 1.092923162744164e-08, global = -2.316624478234667e-10, cumulative = 1.385651950200992e-08
time step continuity errors : sum local = 7.950145463774107e-13, global = -5.626777475408487e-14, cumulative = 1.385646323423516e-08
PIMPLE: iteration 3
time step continuity errors : sum local = 5.047886481503272e-09, global = -2.763698874428609e-10, cumulative = 1.35800933467923e-08
time step continuity errors : sum local = 8.169646279327211e-13, global = -7.182920223592562e-14, cumulative = 1.358002151759007e-08
PIMPLE: iteration 4
time step continuity errors : sum local = 4.042175400175605e-09, global = -3.235309957552344e-10, cumulative = 1.325649052183483e-08
time step continuity errors : sum local = 8.01034357161155e-13, global = -1.246678469727275e-13, cumulative = 1.325636585398786e-08
PIMPLE: iteration 5
time step continuity errors : sum local = 1.176687347200681e-08, global = -1.08453739627479e-10, cumulative = 1.314791211436038e-08
time step continuity errors : sum local = 8.284967164386285e-13, global = 1.324835601642217e-13, cumulative = 1.314804459792054e-08
bounding nuTilda, min: -5.967350511698121e-05 max: 0.3029085864539751 average: 0.02156239713692283
PIMPLE: not converged within 5 iterations
ExecutionTime = 32.48 s  ClockTime = 33 s

Courant Number mean: 0.04477355104363892 max: 356.7318595325588
Time = 0.044

PIMPLE: iteration 1
time step continuity errors : sum local = 1.746216362689681e-08, global = 5.402676263290966e-11, cumulative = 1.320207136055345e-08
time step continuity errors : sum local = 7.210590778546929e-13, global = 1.292150786588278e-13, cumulative = 1.320220057563211e-08
PIMPLE: iteration 2
time step continuity errors : sum local = 1.102746429024292e-08, global = -2.132845853620777e-10, cumulative = 1.298891599027003e-08
time step continuity errors : sum local = 7.689401205359603e-13, global = -4.36289516368287e-14, cumulative = 1.29888723613184e-08
PIMPLE: iteration 3
time step continuity errors : sum local = 5.037687269067418e-09, global = -2.796489065964489e-10, cumulative = 1.270922345472195e-08
time step continuity errors : sum local = 8.13015997694152e-13, global = -5.230961957089059e-14, cumulative = 1.270917114510238e-08
PIMPLE: iteration 4
time step continuity errors : sum local = 4.11415082336112e-09, global = -3.409007167795219e-10, cumulative = 1.236827042832285e-08
time step continuity errors : sum local = 7.927374607345502e-13, global = -1.269498842003513e-13, cumulative = 1.236814347843866e-08
PIMPLE: iteration 5
time step continuity errors : sum local = 1.211424814940429e-08, global = -1.557152938713138e-10, cumulative = 1.221242818456734e-08
time step continuity errors : sum local = 8.412572506018438e-13, global = 1.366563421263471e-13, cumulative = 1.221256484090947e-08
bounding nuTilda, min: -7.495558096510517e-05 max: 0.302668118883797 average: 0.0214601976147803
PIMPLE: not converged within 5 iterations
ExecutionTime = 33.23 s  ClockTime = 34 s

Courant Number mean: 0.0447791397933659 max: 359.4406148535164
Time = 0.045

PIMPLE: iteration 1
time step continuity errors : sum local = 1.764033429503371e-08, global = 9.232312576547393e-11, cumulative = 1.230488796667494e-08
time step continuity errors : sum local = 8.439983900060501e-13, global = 1.504702573042975e-13, cumulative = 1.230503843693225e-08
PIMPLE: iteration 2
time step continuity errors : sum local = 1.107099695344658e-08, global = -1.999959559742302e-10, cumulative = 1.210504248095802e-08
time step continuity errors : sum local = 7.660321362578339e-13, global = -3.791045245028327e-14, cumulative = 1.210500457050557e-08
PIMPLE: iteration 3
time step continuity errors : sum local = 4.983089706312159e-09, global = -2.853132322984948e-10, cumulative = 1.181969133820707e-08
time step continuity errors : sum local = 7.402865253872721e-13, global = -6.289840046527631e-14, cumulative = 1.181962843980661e-08
PIMPLE: iteration 4
time step continuity errors : sum local = 4.211272719379412e-09, global = -3.578720792441168e-10, cumulative = 1.146175636056249e-08
time step continuity errors : sum local = 7.941078375057924e-13, global = -1.248517735141519e-13, cumulative = 1.146163150878898e-08
PIMPLE: iteration 5
time step continuity errors : sum local = 1.23904589709225e-08, global = -2.036033656620318e-10, cumulative = 1.125802814312695e-08
time step continuity errors : sum local = 7.960445473887549e-13, global = 1.26815283515142e-13, cumulative = 1.125815495841046e-08
bounding nuTilda, min: -7.791167359179448e-05 max: 0.3031487660220955 average: 0.02136294635777056
PIMPLE: not converged within 5 iterations
ExecutionTime = 33.98 s  ClockTime = 34 s

Courant Number mean: 0.04478563620914464 max: 362.1103213076614
Time = 0.046

PIMPLE: iteration 1
time step continuity errors : sum local = 1.056970082347359e-08, global = 1.160469386474668e-10, cumulative = 1.137420189705793e-08
time step continuity errors : sum local = 8.020437247590913e-13, global = 1.418452840422504e-13, cumulative = 1.137434374234197e-08
PIMPLE: iteration 2
time step continuity errors : sum local = 1.099841458132141e-08, global = -2.040760641833676e-10, cumulative = 1.11702676781586e-08
time step continuity errors : sum local = 8.854256570202683e-13, global = -5.156637059090735e-14, cumulative = 1.117021611178801e-08
PIMPLE: iteration 3
time step continuity errors : sum local = 4.987669286495939e-09, global = -3.013875864551069e-10, cumulative = 1.086882852533291e-08
time step continuity errors : sum local = 7.520117327211032e-13, global = -4.923700136560786e-14, cumulative = 1.086877928833154e-08
PIMPLE: iteration 4
time step continuity errors : sum local = 4.337996737013167e-09, global = -3.758355774152811e-10, cumulative = 1.049294371091626e-08
time step continuity errors : sum local = 7.824611314160493e-13, global = -1.259205189011983e-13, cumulative = 1.049281779039736e-08
PIMPLE: iteration 5
time step continuity errors : sum local = 1.267201184076962e-08, global = -2.547721518802169e-10, cumulative = 1.023804563851714e-08
time step continuity errors : sum local = 7.927802449878862e-13, global = 1.282734832846505e-13, cumulative = 1.023817391200042e-08
bounding nuTilda, min: -8.907889368699079e-05 max: 0.3035133004191709 average: 0.0212705134840745
PIMPLE: not converged within 5 iterations
ExecutionTime = 34.74 s  ClockTime = 35 s

Courant Number mean: 0.04479264226370663 max: 364.7266758231782
Time = 0.047

PIMPLE: iteration 1
time step continuity errors : sum local = 1.065375876829281e-08, global = 1.403490486512141e-10, cumulative = 1.037852296065164e-08
time step continuity errors : sum local = 7.695825835534182e-13, global = 1.368474971927578e-13, cumulative = 1.037865980814883e-08
PIMPLE: iteration 2
time step continuity errors : sum local = 1.102922109177167e-08, global = -1.904641241674492e-10, cumulative = 1.018819568398138e-08
time step continuity errors : sum local = 8.711343366927624e-13, global = -4.518583804514223e-14, cumulative = 1.018815049814334e-08
PIMPLE: iteration 3
time step continuity errors : sum local = 4.99761114898361e-09, global = -3.169273546248098e-10, cumulative = 9.871223143518527e-09
time step continuity errors : sum local = 9.074857969849755e-13, global = -7.324847756310595e-14, cumulative = 9.871149895040964e-09
PIMPLE: iteration 4
time step continuity errors : sum local = 4.455510844885073e-09, global = -3.90953429074457e-10, cumulative = 9.480196465966507e-09
time step continuity errors : sum local = 7.82576514502356e-13, global = -1.232015779054138e-13, cumulative = 9.4800732643886e-09
PIMPLE: iteration 5
time step continuity errors : sum local = 1.288566865804719e-08, global = -3.049718476807025e-10, cumulative = 9.175101416707897e-09
time step continuity errors : sum local = 9.391939416661669e-13, global = 1.478193828632179e-13, cumulative = 9.17524923609076e-09
bounding nuTilda, min: -9.179566716804437e-05 max: 0.3037307568231444 average: 0.02118346632430498
PIMPLE: not converged within 5 iterations
ExecutionTime = 35.48 s  ClockTime = 36 s

Courant Number mean: 0.04480022349194641 max: 367.2946629342916
Time = 0.048

PIMPLE: iteration 1
time step continuity errors : sum local = 1.067690862302626e-08, global = 1.650762594352e-10, cumulative = 9.34032549552596e-09
time step continuity errors : sum local = 7.523419716673614e-13, global = 1.32501431093449e-13, cumulative = 9.340457996957052e-09
PIMPLE: iteration 2
time step continuity errors : sum local = 1.102216579089613e-08, global = -1.83469296049679e-10, cumulative = 9.156988700907373e-09
time step continuity errors : sum local = 8.38801697562312e-13, global = -3.992889734745858e-14, cumulative = 9.156948772010025e-09
PIMPLE: iteration 3
time step continuity errors : sum local = 5.074764158592536e-09, global = -3.384634977110752e-10, cumulative = 8.81848527429895e-09
time step continuity errors : sum local = 7.490918195702252e-13, global = -5.067780383748795e-14, cumulative = 8.818434596495113e-09
PIMPLE: iteration 4
time step continuity errors : sum local = 4.510244951423121e-09, global = -3.953435918519437e-10, cumulative = 8.42309100464317e-09
time step continuity errors : sum local = 7.714157711528031e-13, global = -1.235661774932768e-13, cumulative = 8.422967438465677e-09
PIMPLE: iteration 5
time step continuity errors : sum local = 1.306089122656106e-08, global = -3.512797008797235e-10, cumulative = 8.071687737585953e-09
[...]
PIMPLE: iteration 4
time step continuity errors : sum local = 4.323987292171687e-09, global = -3.484295590762484e-10, cumulative = -1.277253731504054e-06
time step continuity errors : sum local = 8.515150555605268e-13, global = -7.247681013802961e-14, cumulative = -1.277253803980864e-06
PIMPLE: iteration 5
time step continuity errors : sum local = 1.63903156346521e-08, global = 1.136567498589949e-09, cumulative = -1.276117236482274e-06
time step continuity errors : sum local = 1.081268046226937e-12, global = 3.313392304492208e-14, cumulative = -1.276117203348351e-06
PIMPLE: not converged within 5 iterations
ExecutionTime = 740.12 s  ClockTime = 741 s

Courant Number mean: 0.0459788167960886 max: 560.7881652818755
Time = 0.989

PIMPLE: iteration 1
time step continuity errors : sum local = 9.551262275898275e-09, global = -7.739029812297411e-10, cumulative = -1.276891106329581e-06
time step continuity errors : sum local = 1.035991621360389e-12, global = -1.244888338255916e-13, cumulative = -1.276891230818415e-06
PIMPLE: iteration 2
time step continuity errors : sum local = 1.061684513565023e-08, global = -7.294621610851592e-10, cumulative = -1.2776206929795e-06
time step continuity errors : sum local = 1.027545191531346e-12, global = -1.090265675704926e-13, cumulative = -1.277620802006067e-06
PIMPLE: iteration 3
time step continuity errors : sum local = 6.565759231678595e-09, global = -4.937497819962901e-10, cumulative = -1.278114551788063e-06
time step continuity errors : sum local = 1.062749719350708e-12, global = -1.049312144539324e-13, cumulative = -1.278114656719278e-06
PIMPLE: iteration 4
time step continuity errors : sum local = 4.347502088146493e-09, global = -3.471869445485913e-10, cumulative = -1.278461843663826e-06
time step continuity errors : sum local = 9.194631099771551e-13, global = -8.608960263649657e-14, cumulative = -1.278461929753429e-06
PIMPLE: iteration 5
time step continuity errors : sum local = 1.642164448962203e-08, global = 1.136383639648627e-09, cumulative = -1.27732554611378e-06
time step continuity errors : sum local = 1.121069168116612e-12, global = 3.325821003472547e-14, cumulative = -1.27732551285557e-06
PIMPLE: not converged within 5 iterations
ExecutionTime = 740.8200000000001 s  ClockTime = 741 s

Courant Number mean: 0.04597772121299687 max: 560.7863252591371
Time = 0.99

PIMPLE: iteration 1
time step continuity errors : sum local = 9.572895449038015e-09, global = -7.709359764485666e-10, cumulative = -1.278096448832019e-06
time step continuity errors : sum local = 1.05450691159833e-12, global = -1.274262685432125e-13, cumulative = -1.278096576258288e-06
PIMPLE: iteration 2
time step continuity errors : sum local = 1.066256582606061e-08, global = -7.317599848386399e-10, cumulative = -1.278828336243126e-06
time step continuity errors : sum local = 1.013496475198768e-12, global = -1.047816338596982e-13, cumulative = -1.27882844102476e-06
PIMPLE: iteration 3
time step continuity errors : sum local = 6.602854420626637e-09, global = -4.980425510817755e-10, cumulative = -1.279326483575842e-06
time step continuity errors : sum local = 9.962025064958742e-13, global = -8.78650721794961e-14, cumulative = -1.279326571440914e-06
PIMPLE: iteration 4
time step continuity errors : sum local = 4.368257081514259e-09, global = -3.506219845503225e-10, cumulative = -1.279677193425464e-06
time step continuity errors : sum local = 8.509346293240665e-13, global = -7.248731784380358e-14, cumulative = -1.279677265912782e-06
PIMPLE: iteration 5
time step continuity errors : sum local = 1.648574055988259e-08, global = 1.132635369184377e-09, cumulative = -1.278544630543598e-06
time step continuity errors : sum local = 1.080944002745748e-12, global = 3.268301999522051e-14, cumulative = -1.278544597860578e-06
PIMPLE: not converged within 5 iterations
ExecutionTime = 741.52 s  ClockTime = 742 s

Courant Number mean: 0.04597657973518966 max: 560.7468259536881
Time = 0.991

PIMPLE: iteration 1
time step continuity errors : sum local = 9.589112203689983e-09, global = -7.679469571681219e-10, cumulative = -1.279312544817746e-06
time step continuity errors : sum local = 1.035400083979173e-12, global = -1.24254971197511e-13, cumulative = -1.279312669072717e-06
PIMPLE: iteration 2
time step continuity errors : sum local = 1.071369733673393e-08, global = -7.337760111194354e-10, cumulative = -1.280046445083836e-06
time step continuity errors : sum local = 1.025382610126361e-12, global = -1.087103526936167e-13, cumulative = -1.280046553794189e-06
PIMPLE: iteration 3
time step continuity errors : sum local = 6.648843906046037e-09, global = -5.01098749126011e-10, cumulative = -1.280547652543315e-06
time step continuity errors : sum local = 1.060089144720298e-12, global = -1.044640850827924e-13, cumulative = -1.2805477570074e-06
PIMPLE: iteration 4
time step continuity errors : sum local = 4.391681757968226e-09, global = -3.494168762438388e-10, cumulative = -1.280897173883644e-06
time step continuity errors : sum local = 9.173398608366253e-13, global = -8.568990493575707e-14, cumulative = -1.280897259573549e-06
PIMPLE: iteration 5
time step continuity errors : sum local = 1.652569842922347e-08, global = 1.133269305926584e-09, cumulative = -1.279763990267622e-06
time step continuity errors : sum local = 1.118998009469843e-12, global = 3.302044427332309e-14, cumulative = -1.279763957247178e-06
PIMPLE: not converged within 5 iterations
ExecutionTime = 742.22 s  ClockTime = 743 s

Courant Number mean: 0.04597537317761755 max: 560.7496176635234
Time = 0.992

PIMPLE: iteration 1
time step continuity errors : sum local = 9.610741104455103e-09, global = -7.649259590067749e-10, cumulative = -1.280528883206185e-06
time step continuity errors : sum local = 1.053371053234969e-12, global = -1.270973087768447e-13, cumulative = -1.280529010303494e-06
PIMPLE: iteration 2
time step continuity errors : sum local = 1.075777935814122e-08, global = -7.363955665506754e-10, cumulative = -1.281265405870045e-06
time step continuity errors : sum local = 1.011342514612298e-12, global = -1.04453308597693e-13, cumulative = -1.281265510323353e-06
PIMPLE: iteration 3
time step continuity errors : sum local = 6.682587637288822e-09, global = -5.052025778083785e-10, cumulative = -1.281770712901162e-06
time step continuity errors : sum local = 9.944459244986221e-13, global = -8.76250436149022e-14, cumulative = -1.281770800526205e-06
PIMPLE: iteration 4
time step continuity errors : sum local = 4.410430951237072e-09, global = -3.529180037514077e-10, cumulative = -1.282123718529957e-06
time step continuity errors : sum local = 8.493239419619577e-13, global = -7.231454977314725e-14, cumulative = -1.282123790844507e-06
PIMPLE: iteration 5
time step continuity errors : sum local = 1.659850016489461e-08, global = 1.130442838551444e-09, cumulative = -1.280993348005955e-06
time step continuity errors : sum local = 1.078708090424086e-12, global = 3.255053065404573e-14, cumulative = -1.280993315455425e-06
PIMPLE: not converged within 5 iterations
ExecutionTime = 742.92 s  ClockTime = 744 s

Courant Number mean: 0.04597415709794977 max: 560.7094521254843
Time = 0.993

PIMPLE: iteration 1
time step continuity errors : sum local = 9.637278439367549e-09, global = -7.63464007314006e-10, cumulative = -1.281756779462739e-06
time step continuity errors : sum local = 1.032750380711949e-12, global = -1.238145905731318e-13, cumulative = -1.281756903277329e-06
PIMPLE: iteration 2
time step continuity errors : sum local = 1.082052058258281e-08, global = -7.395902505715004e-10, cumulative = -1.282496493527901e-06
time step continuity errors : sum local = 1.021118636926599e-12, global = -1.081453851478697e-13, cumulative = -1.282496601673286e-06
PIMPLE: iteration 3
time step continuity errors : sum local = 6.734783064127379e-09, global = -5.083891191315574e-10, cumulative = -1.283004990792417e-06
time step continuity errors : sum local = 1.056710781611933e-12, global = -1.039436179222684e-13, cumulative = -1.283005094736035e-06
PIMPLE: iteration 4
time step continuity errors : sum local = 4.439833081917175e-09, global = -3.519301861400744e-10, cumulative = -1.283357024922175e-06
time step continuity errors : sum local = 9.149675963709358e-13, global = -8.533071667983619e-14, cumulative = -1.283357110252892e-06
PIMPLE: iteration 5
time step continuity errors : sum local = 1.664281785725337e-08, global = 1.131685027770729e-09, cumulative = -1.282225425225121e-06
time step continuity errors : sum local = 1.117780043320336e-12, global = 3.275225697744863e-14, cumulative = -1.282225392472864e-06
PIMPLE: not converged within 5 iterations
ExecutionTime = 743.61 s  ClockTime = 744 s

Courant Number mean: 0.04597301509902902 max: 560.7091857941273
Time = 0.994

PIMPLE: iteration 1
time step continuity errors : sum local = 9.664110321458041e-09, global = -7.608752624017985e-10, cumulative = -1.282986267735266e-06
time step continuity errors : sum local = 1.05082785397561e-12, global = -1.265506113371859e-13, cumulative = -1.282986394285877e-06
PIMPLE: iteration 2
time step continuity errors : sum local = 1.086910519847059e-08, global = -7.425460478773782e-10, cumulative = -1.283728940333754e-06
time step continuity errors : sum local = 1.007616021507165e-12, global = -1.039236060824767e-13, cumulative = -1.28372904425736e-06
PIMPLE: iteration 3
time step continuity errors : sum local = 6.768704944567793e-09, global = -5.126596737293793e-10, cumulative = -1.28424170393109e-06
time step continuity errors : sum local = 9.918949225627313e-13, global = -8.734259627618753e-14, cumulative = -1.284241791273686e-06
PIMPLE: iteration 4
time step continuity errors : sum local = 4.462099281213084e-09, global = -3.557393895840221e-10, cumulative = -1.28459753066327e-06
time step continuity errors : sum local = 8.483386685518355e-13, global = -7.224928466375772e-14, cumulative = -1.284597602912555e-06
PIMPLE: iteration 5
time step continuity errors : sum local = 1.671048730213657e-08, global = 1.128886066051056e-09, cumulative = -1.283468716846504e-06
time step continuity errors : sum local = 1.077981560135791e-12, global = 3.240206494642928e-14, cumulative = -1.283468684444439e-06
PIMPLE: not converged within 5 iterations
ExecutionTime = 744.3200000000001 s  ClockTime = 745 s

Courant Number mean: 0.04597191157065337 max: 560.6711403930186
Time = 0.995

PIMPLE: iteration 1
time step continuity errors : sum local = 9.667074129389572e-09, global = -7.580435069350166e-10, cumulative = -1.284226727951374e-06
time step continuity errors : sum local = 1.032570974112734e-12, global = -1.235214066259443e-13, cumulative = -1.284226851472781e-06
PIMPLE: iteration 2
time step continuity errors : sum local = 1.089459971815471e-08, global = -7.439805381990044e-10, cumulative = -1.28497083201098e-06
time step continuity errors : sum local = 1.020788039254839e-12, global = -1.078842410124499e-13, cumulative = -1.284970939895221e-06
PIMPLE: iteration 3
time step continuity errors : sum local = 6.787117892027812e-09, global = -5.13403739198761e-10, cumulative = -1.285484343634419e-06
time step continuity errors : sum local = 1.05557303558263e-12, global = -1.037312772111553e-13, cumulative = -1.285484447365697e-06
PIMPLE: iteration 4
time step continuity errors : sum local = 4.4745188217384e-09, global = -3.544869078296243e-10, cumulative = -1.285838934273526e-06
time step continuity errors : sum local = 9.13991439556885e-13, global = -8.509947483672711e-14, cumulative = -1.285839019373001e-06
PIMPLE: iteration 5
time step continuity errors : sum local = 1.675877006561692e-08, global = 1.131075610342832e-09, cumulative = -1.284707943762658e-06
time step continuity errors : sum local = 1.114809672626147e-12, global = 3.306006635417623e-14, cumulative = -1.284707910702592e-06
PIMPLE: not converged within 5 iterations
ExecutionTime = 745.02 s  ClockTime = 746 s

Courant Number mean: 0.04597091890801074 max: 560.6755423532574
Time = 0.996

PIMPLE: iteration 1
time step continuity errors : sum local = 9.703437508427036e-09, global = -7.564584304251346e-10, cumulative = -1.285464369133017e-06
time step continuity errors : sum local = 1.048599239259354e-12, global = -1.262445485179444e-13, cumulative = -1.285464495377566e-06
PIMPLE: iteration 2
time step continuity errors : sum local = 6.02308946402795e-09, global = -4.504717458881861e-10, cumulative = -1.285914967123454e-06
time step continuity errors : sum local = 9.837874736818147e-13, global = -1.016602252444312e-13, cumulative = -1.285915068783679e-06
PIMPLE: iteration 3
time step continuity errors : sum local = 6.840482156170549e-09, global = -5.188561629977521e-10, cumulative = -1.286433924946677e-06
time step continuity errors : sum local = 9.905959441423909e-13, global = -8.717352628094912e-14, cumulative = -1.286434012120203e-06
PIMPLE: iteration 4
time step continuity errors : sum local = 4.502011924306723e-09, global = -3.576400098800902e-10, cumulative = -1.286791652130083e-06
time step continuity errors : sum local = 8.457317748112087e-13, global = -7.19942883434105e-14, cumulative = -1.286791724124372e-06
PIMPLE: iteration 5
time step continuity errors : sum local = 1.682248294015351e-08, global = 1.128376700050953e-09, cumulative = -1.285663347424321e-06
time step continuity errors : sum local = 1.07264849095062e-12, global = 3.300645879407071e-14, cumulative = -1.285663314417862e-06
PIMPLE: not converged within 5 iterations
ExecutionTime = 745.71 s  ClockTime = 746 s

Courant Number mean: 0.04596995699917697 max: 560.6371656784989
Time = 0.997

PIMPLE: iteration 1
time step continuity errors : sum local = 9.717246555451081e-09, global = -7.531245566263429e-10, cumulative = -1.286416438974488e-06
time step continuity errors : sum local = 1.02899708099684e-12, global = -1.229577133846066e-13, cumulative = -1.286416561932201e-06
PIMPLE: iteration 2
time step continuity errors : sum local = 6.042007955754499e-09, global = -4.508136268697416e-10, cumulative = -1.286867375559071e-06
time step continuity errors : sum local = 9.944899394703473e-13, global = -1.052176206779319e-13, cumulative = -1.286867480776692e-06
PIMPLE: iteration 3
time step continuity errors : sum local = 6.880725381516761e-09, global = -5.210430327793634e-10, cumulative = -1.287388523809471e-06
time step continuity errors : sum local = 1.05286938875855e-12, global = -1.03274988455792e-13, cumulative = -1.28738862708446e-06
PIMPLE: iteration 4
time step continuity errors : sum local = 4.527902431885593e-09, global = -3.568354212271482e-10, cumulative = -1.287745462505687e-06
time step continuity errors : sum local = 9.108758699710281e-13, global = -8.467466730368028e-14, cumulative = -1.287745547180354e-06
PIMPLE: iteration 5
time step continuity errors : sum local = 1.68641425592742e-08, global = 1.130948194029977e-09, cumulative = -1.286614598986324e-06
time step continuity errors : sum local = 1.110778919552332e-12, global = 3.339835964542794e-14, cumulative = -1.286614565587965e-06
PIMPLE: not converged within 5 iterations
ExecutionTime = 746.42 s  ClockTime = 747 s

Courant Number mean: 0.0459689305640649 max: 560.6386189691557
Time = 0.998

PIMPLE: iteration 1
time step continuity errors : sum local = 9.741309263133039e-09, global = -7.519586770066745e-10, cumulative = -1.287366524264971e-06
time step continuity errors : sum local = 1.046672554845119e-12, global = -1.258044755703998e-13, cumulative = -1.287366650069447e-06
PIMPLE: iteration 2
time step continuity errors : sum local = 6.05718197840167e-09, global = -4.521247461028523e-10, cumulative = -1.28781877481555e-06
time step continuity errors : sum local = 9.788707577223769e-13, global = -1.006581813232843e-13, cumulative = -1.287818875473731e-06
PIMPLE: iteration 3
time step continuity errors : sum local = 6.904082209423434e-09, global = -5.248331330013973e-10, cumulative = -1.288343708606732e-06
time step continuity errors : sum local = 9.897333371904987e-13, global = -8.710356500758144e-14, cumulative = -1.288343795710297e-06
PIMPLE: iteration 4
time step continuity errors : sum local = 4.54324422918172e-09, global = -3.603942998303734e-10, cumulative = -1.288704190010128e-06
time step continuity errors : sum local = 1.110638276660969e-12, global = -9.411248533456933e-14, cumulative = -1.288704284122613e-06
PIMPLE: iteration 5
time step continuity errors : sum local = 1.69314123938822e-08, global = 1.129153589050719e-09, cumulative = -1.287575130533562e-06
time step continuity errors : sum local = 1.066723159636181e-12, global = 3.313565484084391e-14, cumulative = -1.287575097397907e-06
PIMPLE: not converged within 5 iterations
ExecutionTime = 747.15 s  ClockTime = 748 s

Courant Number mean: 0.04596788677147043 max: 560.6023283307435
Time = 0.999

PIMPLE: iteration 1
time step continuity errors : sum local = 9.753969356471731e-09, global = -7.504374208558418e-10, cumulative = -1.288325534818763e-06
time step continuity errors : sum local = 1.026088418205482e-12, global = -1.225101176897424e-13, cumulative = -1.288325657328881e-06
PIMPLE: iteration 2
time step continuity errors : sum local = 6.074024382419053e-09, global = -4.531331986460038e-10, cumulative = -1.288778790527527e-06
time step continuity errors : sum local = 9.890531146989725e-13, global = -1.04196797564053e-13, cumulative = -1.288778894724324e-06
PIMPLE: iteration 3
time step continuity errors : sum local = 6.935771517200094e-09, global = -5.26651212872768e-10, cumulative = -1.289305545937197e-06
time step continuity errors : sum local = 1.05108862722081e-12, global = -1.029212157929572e-13, cumulative = -1.289305648858413e-06
PIMPLE: iteration 4
time step continuity errors : sum local = 4.561139212841345e-09, global = -3.591738029792208e-10, cumulative = -1.289664822661392e-06
time step continuity errors : sum local = 9.050097180029144e-13, global = -8.388819014905188e-14, cumulative = -1.289664906549582e-06
PIMPLE: iteration 5
time step continuity errors : sum local = 1.697258591591496e-08, global = 1.132442291432549e-09, cumulative = -1.28853246425815e-06
time step continuity errors : sum local = 1.104247760145099e-12, global = 3.392137287077577e-14, cumulative = -1.288532430336777e-06
PIMPLE: not converged within 5 iterations
ExecutionTime = 747.86 s  ClockTime = 749 s

Courant Number mean: 0.04596692223869862 max: 560.6084562449795
Time = 1

PIMPLE: iteration 1
time step continuity errors : sum local = 9.783752199116176e-09, global = -7.490707166677733e-10, cumulative = -1.289281501053445e-06
time step continuity errors : sum local = 1.042886094012862e-12, global = -1.253032394721167e-13, cumulative = -1.289281626356684e-06
PIMPLE: iteration 2
time step continuity errors : sum local = 6.100190623462103e-09, global = -4.548822322227294e-10, cumulative = -1.289736508588907e-06
time step continuity errors : sum local = 9.752281054394428e-13, global = -1.002534668593853e-13, cumulative = -1.289736608842374e-06
PIMPLE: iteration 3
time step continuity errors : sum local = 6.971911002982025e-09, global = -5.307142711474884e-10, cumulative = -1.290267323113521e-06
time step continuity errors : sum local = 9.877231770088658e-13, global = -8.685562329635826e-14, cumulative = -1.290267409969145e-06
PIMPLE: iteration 4
time step continuity errors : sum local = 4.579472940223968e-09, global = -3.622456932912175e-10, cumulative = -1.290629655662436e-06
time step continuity errors : sum local = 1.107761759060086e-12, global = -9.387050643738345e-14, cumulative = -1.290629749532942e-06
PIMPLE: iteration 5
time step continuity errors : sum local = 1.703569843358629e-08, global = 1.131230588372312e-09, cumulative = -1.28949851894457e-06
time step continuity errors : sum local = 1.064741115711208e-12, global = 3.373824056812853e-14, cumulative = -1.289498485206329e-06
PIMPLE: not converged within 5 iterations
ExecutionTime = 748.92 s  ClockTime = 750 s

End

Finalising parallel run
