/*---------------------------------------------------------------------------*\
| =========                 |                                                 |
| \\      /  F ield         | OpenFOAM: The Open Source CFD Toolbox           |
|  \\    /   O peration     | Version:  2406                                  |
|   \\  /    A nd           | Website:  www.openfoam.com                      |
|    \\/     M anipulation  |                                                 |
\*---------------------------------------------------------------------------*/
Build  : _be01ca78-20240625 OPENFOAM=2406 version=2406
Arch   : "LSB;label=32;scalar=64"
Exec   : blockMesh
Date   : Nov 29 2024
Time   : 08:46:39
Host   : jony3
PID    : 384735
I/O    : uncollated
Case   : /home/jony/dafoamCases/multiProfile
nProcs : 1
trapFpe: Floating point exception trapping enabled (FOAM_SIGFPE).
fileModificationChecking : Monitoring run-time modified files using timeStampMaster (fileModificationSkew 5, maxFileModificationPolls 20)
allowSystemOperations : Allowing user-supplied system call operations

// * * * * * * * * * * * * * * * * * * * * * * * * * * * * * * * * * * * * * //
Create time

Overriding DebugSwitches according to controlDict
    SolverPerformance 0;

Creating block mesh from "system/blockMeshDict"
--> FOAM IOWarning :
    Found [v1012] 'convertToMeters' entry instead of 'scale' in dictionary "system/blockMeshDict"

    This keyword is 162 months old.

Creating block edges
No non-planar block faces defined
Creating topology blocks

Creating topology patches - from patches section

Reading physicalType from existing boundary file

Default patch type set to empty

Creating block mesh topology

Check topology

	Basic statistics
		Number of internal faces : 3
		Number of boundary faces : 18
		Number of defined boundary faces : 18
		Number of undefined boundary faces : 0
	Checking patch -> block consistency

Creating block offsets
Creating merge list (topological search)...
Deleting polyMesh directory "constant/polyMesh"

Creating polyMesh from blockMesh
Creating patches
Creating cells
Creating points with scale (1 1 1)
    Block 0 cell size :
        i : 0.169801648573631 .. 0.006792065942945347
        j : 0.001739011853561543 .. 0.00173901185356154
        k : 0.001739011853561544 .. 0.00173901185356154

    Block 1 cell size :
        i : 0.00382266847285301 .. 0.003822668472852861
        j : 0.001739011853561543 .. 0.00173901185356154
        k : 0.001739011853561544 .. 0.00173901185356154

    Block 2 cell size :
        i : 0.01852523952228691 .. 0.01852523952228696
        j : 0.001739011853561553 .. 0.001739011853561543
        k : 0.001739011853561544 .. 0.00173901185356154

    Block 3 cell size :
        i : 0.169801648573631 .. 0.006792065942945347
        j : 0.001739011853561553 .. 0.001739011853561543
        k : 0.001739011853561544 .. 0.00173901185356154

No patch pairs to merge

Writing polyMesh with 0 cellZones
----------------
Mesh Information
----------------
  boundingBox: (0 -0.09450000000000001 0) (0.8445 0.09450000000000001 0.07500000000000001)
  nPoints: 5445
  nCells: 4400
  nFaces: 14180
  nInternalFaces: 12220
----------------
Patches
----------------
  patch 0 (start: 12220 size: 100) name: inlet
  patch 1 (start: 12320 size: 100) name: outlet
  patch 2 (start: 12420 size: 1760) name: ubend

End

/*---------------------------------------------------------------------------*\
| =========                 |                                                 |
| \\      /  F ield         | OpenFOAM: The Open Source CFD Toolbox           |
|  \\    /   O peration     | Version:  2406                                  |
|   \\  /    A nd           | Website:  www.openfoam.com                      |
|    \\/     M anipulation  |                                                 |
\*---------------------------------------------------------------------------*/
Build  : _be01ca78-20240625 OPENFOAM=2406 version=2406
Arch   : "LSB;label=32;scalar=64"
Exec   : surfaceFeatureExtract
Date   : Nov 29 2024
Time   : 08:46:39
Host   : jony3
PID    : 384738
I/O    : uncollated
Case   : /home/jony/dafoamCases/multiProfile
nProcs : 1
trapFpe: Floating point exception trapping enabled (FOAM_SIGFPE).
fileModificationChecking : Monitoring run-time modified files using timeStampMaster (fileModificationSkew 5, maxFileModificationPolls 20)
allowSystemOperations : Allowing user-supplied system call operations

// * * * * * * * * * * * * * * * * * * * * * * * * * * * * * * * * * * * * * //
Create time

Overriding DebugSwitches according to controlDict
    SolverPerformance 0;


Note: Feature line extraction only valid on closed manifold surfaces

Reading surfaceFeatureExtractDict

/*---------------------------------------------------------------------------*\
| =========                 |                                                 |
| \\      /  F ield         | OpenFOAM: The Open Source CFD Toolbox           |
|  \\    /   O peration     | Version:  2406                                  |
|   \\  /    A nd           | Website:  www.openfoam.com                      |
|    \\/     M anipulation  |                                                 |
\*---------------------------------------------------------------------------*/
Build  : _be01ca78-20240625 OPENFOAM=2406 version=2406
Arch   : "LSB;label=32;scalar=64"
Exec   : snappyHexMesh -overwrite
Date   : Nov 29 2024
Time   : 08:46:39
Host   : jony3
PID    : 384739
I/O    : uncollated
Case   : /home/jony/dafoamCases/multiProfile
nProcs : 1
trapFpe: Floating point exception trapping enabled (FOAM_SIGFPE).
fileModificationChecking : Monitoring run-time modified files using timeStampMaster (fileModificationSkew 5, maxFileModificationPolls 20)
allowSystemOperations : Allowing user-supplied system call operations

// * * * * * * * * * * * * * * * * * * * * * * * * * * * * * * * * * * * * * //
Create time

Overriding DebugSwitches according to controlDict
    SolverPerformance 0;

Create mesh for time = 0

Read mesh in = 0.03 s
/*---------------------------------------------------------------------------*\
| =========                 |                                                 |
| \\      /  F ield         | OpenFOAM: The Open Source CFD Toolbox           |
|  \\    /   O peration     | Version:  2406                                  |
|   \\  /    A nd           | Website:  www.openfoam.com                      |
|    \\/     M anipulation  |                                                 |
\*---------------------------------------------------------------------------*/
Build  : _be01ca78-20240625 OPENFOAM=2406 version=2406
Arch   : "LSB;label=32;scalar=64"
Exec   : extrudeMesh
Date   : Nov 29 2024
Time   : 08:46:39
Host   : jony3
PID    : 384740
I/O    : uncollated
Case   : /home/jony/dafoamCases/multiProfile
nProcs : 1
trapFpe: Floating point exception trapping enabled (FOAM_SIGFPE).
fileModificationChecking : Monitoring run-time modified files using timeStampMaster (fileModificationSkew 5, maxFileModificationPolls 20)
allowSystemOperations : Allowing user-supplied system call operations

// * * * * * * * * * * * * * * * * * * * * * * * * * * * * * * * * * * * * * //
Create time

Overriding DebugSwitches according to controlDict
    SolverPerformance 0;

Create mesh for time = 0

/*---------------------------------------------------------------------------*\
| =========                 |                                                 |
| \\      /  F ield         | OpenFOAM: The Open Source CFD Toolbox           |
|  \\    /   O peration     | Version:  2406                                  |
|   \\  /    A nd           | Website:  www.openfoam.com                      |
|    \\/     M anipulation  |                                                 |
\*---------------------------------------------------------------------------*/
Build  : _be01ca78-20240625 OPENFOAM=2406 version=2406
Arch   : "LSB;label=32;scalar=64"
Exec   : transformPoints -scale (1 1 0.1)
Date   : Nov 29 2024
Time   : 08:46:39
Host   : jony3
PID    : 384741
I/O    : uncollated
Case   : /home/jony/dafoamCases/multiProfile
nProcs : 1
trapFpe: Floating point exception trapping enabled (FOAM_SIGFPE).
fileModificationChecking : Monitoring run-time modified files using timeStampMaster (fileModificationSkew 5, maxFileModificationPolls 20)
allowSystemOperations : Allowing user-supplied system call operations

// * * * * * * * * * * * * * * * * * * * * * * * * * * * * * * * * * * * * * //
Create time

Overriding DebugSwitches according to controlDict
    SolverPerformance 0;

Scaling points by (1 1 0.1)
Writing points into directory "constant/polyMesh"


End

/*---------------------------------------------------------------------------*\
| =========                 |                                                 |
| \\      /  F ield         | OpenFOAM: The Open Source CFD Toolbox           |
|  \\    /   O peration     | Version:  2406                                  |
|   \\  /    A nd           | Website:  www.openfoam.com                      |
|    \\/     M anipulation  |                                                 |
\*---------------------------------------------------------------------------*/
Build  : _be01ca78-20240625 OPENFOAM=2406 version=2406
Arch   : "LSB;label=32;scalar=64"
Exec   : createPatch -overwrite
Date   : Nov 29 2024
Time   : 08:46:39
Host   : jony3
PID    : 384743
I/O    : uncollated
Case   : /home/jony/dafoamCases/multiProfile
nProcs : 1
trapFpe: Floating point exception trapping enabled (FOAM_SIGFPE).
fileModificationChecking : Monitoring run-time modified files using timeStampMaster (fileModificationSkew 5, maxFileModificationPolls 20)
allowSystemOperations : Allowing user-supplied system call operations

// * * * * * * * * * * * * * * * * * * * * * * * * * * * * * * * * * * * * * //
Create time

Overriding DebugSwitches according to controlDict
    SolverPerformance 0;

Create mesh for time = 0

Reading "system/createPatchDict"

--> FOAM Warning : 
    From Foam::labelHashSet Foam::polyBoundaryMesh::patchSet(const Foam::UList<Foam::wordRe>&, bool, bool) const
    in file meshes/polyMesh/polyBoundaryMesh/polyBoundaryMesh.C at line 1098
    Cannot find any patch or group names matching auto0
--> FOAM Warning : 
    From Foam::labelHashSet Foam::polyBoundaryMesh::patchSet(const Foam::UList<Foam::wordRe>&, bool, bool) const
    in file meshes/polyMesh/polyBoundaryMesh/polyBoundaryMesh.C at line 1098
    Cannot find any patch or group names matching auto1
--> FOAM Warning : 
    From Foam::labelHashSet Foam::polyBoundaryMesh::patchSet(const Foam::UList<Foam::wordRe>&, bool, bool) const
    in file meshes/polyMesh/polyBoundaryMesh/polyBoundaryMesh.C at line 1098
    Cannot find any patch or group names matching auto2
--> FOAM Warning : 
    From Foam::labelHashSet Foam::polyBoundaryMesh::patchSet(const Foam::UList<Foam::wordRe>&, bool, bool) const
    in file meshes/polyMesh/polyBoundaryMesh/polyBoundaryMesh.C at line 1098
    Cannot find any patch or group names matching auto3
--> FOAM Warning : 
    From Foam::labelHashSet Foam::polyBoundaryMesh::patchSet(const Foam::UList<Foam::wordRe>&, bool, bool) const
    in file meshes/polyMesh/polyBoundaryMesh/polyBoundaryMesh.C at line 1098
    Cannot find any patch or group names matching auto4


Adding patches to mesh region0

Adding new patch symmetry1 from 
{
    type            symmetry;
    nFaces          0;
    startFace       0;
}

Adding new patch symmetry2 from 
{
    type            symmetry;
    nFaces          0;
    startFace       0;
}

Adding new patch wing from 
{
    type            wall;
    nFaces          0;
    startFace       0;
}

Adding new patch inout from 
{
    type            patch;
    nFaces          0;
    startFace       0;
}




Repatching mesh region0

--> FOAM Warning : 
    From Foam::labelHashSet Foam::polyBoundaryMesh::patchSet(const Foam::UList<Foam::wordRe>&, bool, bool) const
    in file meshes/polyMesh/polyBoundaryMesh/polyBoundaryMesh.C at line 1098
    Cannot find any patch or group names matching auto0
--> FOAM Warning : 
    From Foam::labelHashSet Foam::polyBoundaryMesh::patchSet(const Foam::UList<Foam::wordRe>&, bool, bool) const
    in file meshes/polyMesh/polyBoundaryMesh/polyBoundaryMesh.C at line 1098
    Cannot find any patch or group names matching auto1
--> FOAM Warning : 
    From Foam::labelHashSet Foam::polyBoundaryMesh::patchSet(const Foam::UList<Foam::wordRe>&, bool, bool) const
    in file meshes/polyMesh/polyBoundaryMesh/polyBoundaryMesh.C at line 1098
    Cannot find any patch or group names matching auto2
--> FOAM Warning : 
    From Foam::labelHashSet Foam::polyBoundaryMesh::patchSet(const Foam::UList<Foam::wordRe>&, bool, bool) const
    in file meshes/polyMesh/polyBoundaryMesh/polyBoundaryMesh.C at line 1098
    Cannot find any patch or group names matching auto3
--> FOAM Warning : 
    From Foam::labelHashSet Foam::polyBoundaryMesh::patchSet(const Foam::UList<Foam::wordRe>&, bool, bool) const
    in file meshes/polyMesh/polyBoundaryMesh/polyBoundaryMesh.C at line 1098
    Cannot find any patch or group names matching auto4
Doing topology modification to order faces.

Not synchronising points.

Removing patches with no faces in them.

Removed zero-sized patch symmetry1 type symmetry at position 3
Removed zero-sized patch symmetry2 type symmetry at position 4
Removed zero-sized patch wing type wall at position 5
Removed zero-sized patch inout type patch at position 6


Writing repatched mesh region0 to 0

End

/*---------------------------------------------------------------------------*\
| =========                 |                                                 |
| \\      /  F ield         | OpenFOAM: The Open Source CFD Toolbox           |
|  \\    /   O peration     | Version:  2406                                  |
|   \\  /    A nd           | Website:  www.openfoam.com                      |
|    \\/     M anipulation  |                                                 |
\*---------------------------------------------------------------------------*/
Build  : _be01ca78-20240625 OPENFOAM=2406 version=2406
Arch   : "LSB;label=32;scalar=64"
Exec   : renumberMesh -overwrite
Date   : Nov 29 2024
Time   : 08:46:39
Host   : jony3
PID    : 384744
I/O    : uncollated
Case   : /home/jony/dafoamCases/multiProfile
nProcs : 1
trapFpe: Floating point exception trapping enabled (FOAM_SIGFPE).
fileModificationChecking : Monitoring run-time modified files using timeStampMaster (fileModificationSkew 5, maxFileModificationPolls 20)
allowSystemOperations : Allowing user-supplied system call operations

// * * * * * * * * * * * * * * * * * * * * * * * * * * * * * * * * * * * * * //
Create time

Overriding DebugSwitches according to controlDict
    SolverPerformance 0;

Create mesh for time = constant

Mesh region0 size: 4400
Before renumbering
    band           : 1407
    profile        : 745448

Using renumber-method: CuthillMcKee [default]

Reading fields

After renumbering
    band           : 110
    profile        : 419353

Writing mesh to "constant"

Timings:
    read mesh   : 0.023542885
    read fields : 0.000125388
    decompose   : 0
    cell-cells  : 0
    renumber    : 0.001754445
    write       : 0.039021917
TotalTime = 0.06792477299999999 s

ExecutionTime = 0.07000000000000001 s  ClockTime = 0 s

End

