--------------------------------------------------------------------------
[[24309,1],5]: A high-performance Open MPI point-to-point messaging module
was unable to find any relevant network interfaces:

Module: OpenFabrics (openib)
  Host: d58cbdfd066d

Another transport will be used instead, although this may result in
lower performance.

NOTE: You can disable this warning by setting the MCA parameter
btl_base_warn_component_unused to 0.
--------------------------------------------------------------------------
 
-------------------------------------------------------------------------------
|                               DAFoam v3.1.2                                 |
-------------------------------------------------------------------------------
 
/*---------------------------------------------------------------------------*\
| =========                 |                                                 |
| \\      /  F ield         | OpenFOAM: The Open Source CFD Toolbox           |
|  \\    /   O peration     | Version:  v1812                                 |
|   \\  /    A nd           | Web:      www.OpenFOAM.com                      |
|    \\/     M anipulation  |                                                 |
\*---------------------------------------------------------------------------*/
Build  : v1812 OPENFOAM=1812
Arch   : "LSB;label=32;scalar=64"
Exec   : decomposePar
Date   : Feb 24 2025
Time   : 08:14:24
Host   : d58cbdfd066d
PID    : 1043
I/O    : uncollated
Case   : /home/dafoamuser/mount
nProcs : 1
trapFpe: Floating point exception trapping enabled (FOAM_SIGFPE).
fileModificationChecking : Monitoring run-time modified files using timeStampMaster (fileModificationSkew 10)
allowSystemOperations : Allowing user-supplied system call operations

// * * * * * * * * * * * * * * * * * * * * * * * * * * * * * * * * * * * * * //
Create time

Overriding DebugSwitches according to controlDict
    SolverPerformance 0;



Decomposing mesh region0

Create mesh

Calculating distribution of cells
Selecting decompositionMethod scotch [12]

Finished decomposition in 0.07000000000000001 s

Calculating original mesh data

Distributing cells to processors

Distributing faces to processors

Distributing points to processors

Constructing processor meshes
Overriding DebugSwitches according to controlDict
    SolverPerformance 0;


Processor 0
    Number of cells = 3500
    Number of faces shared with processor 1 = 27
    Number of faces shared with processor 3 = 46
    Number of faces shared with processor 7 = 52
    Number of processor patches = 3
    Number of processor faces = 125
    Number of boundary faces = 7145
Overriding DebugSwitches according to controlDict
    SolverPerformance 0;


Processor 1
    Number of cells = 3569
    Number of faces shared with processor 0 = 27
    Number of faces shared with processor 2 = 69
    Number of faces shared with processor 7 = 5
    Number of faces shared with processor 9 = 53
    Number of faces shared with processor 10 = 10
    Number of faces shared with processor 11 = 26
    Number of processor patches = 6
    Number of processor faces = 190
    Number of boundary faces = 7217
Overriding DebugSwitches according to controlDict
    SolverPerformance 0;


Processor 2
    Number of cells = 3552
    Number of faces shared with processor 1 = 69
    Number of faces shared with processor 4 = 59
    Number of faces shared with processor 5 = 1
    Number of faces shared with processor 10 = 2
    Number of processor patches = 4
    Number of processor faces = 131
    Number of boundary faces = 7211
Overriding DebugSwitches according to controlDict
    SolverPerformance 0;


Processor 3
    Number of cells = 3500
    Number of faces shared with processor 0 = 46
    Number of faces shared with processor 5 = 69
    Number of faces shared with processor 7 = 13
    Number of processor patches = 3
    Number of processor faces = 128
    Number of boundary faces = 7113
Overriding DebugSwitches according to controlDict
    SolverPerformance 0;


Processor 4
    Number of cells = 3566
    Number of faces shared with processor 2 = 59
    Number of faces shared with processor 5 = 69
    Number of processor patches = 2
    Number of processor faces = 128
    Number of boundary faces = 7192
Overriding DebugSwitches according to controlDict
    SolverPerformance 0;


Processor 5
    Number of cells = 3502
    Number of faces shared with processor 2 = 1
    Number of faces shared with processor 3 = 69
    Number of faces shared with processor 4 = 69
    Number of faces shared with processor 6 = 7
    Number of faces shared with processor 7 = 19
    Number of faces shared with processor 10 = 21
    Number of processor patches = 6
    Number of processor faces = 186
    Number of boundary faces = 7110
Overriding DebugSwitches according to controlDict
    SolverPerformance 0;


Processor 6
    Number of cells = 3552
    Number of faces shared with processor 5 = 7
    Number of faces shared with processor 7 = 26
    Number of faces shared with processor 8 = 67
    Number of faces shared with processor 10 = 78
    Number of processor patches = 4
    Number of processor faces = 178
    Number of boundary faces = 7200
Overriding DebugSwitches according to controlDict
    SolverPerformance 0;


Processor 7
    Number of cells = 3526
    Number of faces shared with processor 0 = 52
    Number of faces shared with processor 1 = 5
    Number of faces shared with processor 3 = 13
    Number of faces shared with processor 5 = 19
    Number of faces shared with processor 6 = 26
    Number of faces shared with processor 8 = 50
    Number of faces shared with processor 9 = 17
    Number of processor patches = 7
    Number of processor faces = 182
    Number of boundary faces = 7149
Overriding DebugSwitches according to controlDict
    SolverPerformance 0;


Processor 8
    Number of cells = 3570
    Number of faces shared with processor 6 = 67
    Number of faces shared with processor 7 = 50
    Number of processor patches = 2
    Number of processor faces = 117
    Number of boundary faces = 7270
Overriding DebugSwitches according to controlDict
    SolverPerformance 0;


Processor 9
    Number of cells = 3556
    Number of faces shared with processor 1 = 53
    Number of faces shared with processor 7 = 17
    Number of faces shared with processor 11 = 77
    Number of processor patches = 3
    Number of processor faces = 147
    Number of boundary faces = 7207
Overriding DebugSwitches according to controlDict
    SolverPerformance 0;


Processor 10
    Number of cells = 3535
    Number of faces shared with processor 1 = 10
    Number of faces shared with processor 2 = 2
    Number of faces shared with processor 5 = 21
    Number of faces shared with processor 6 = 78
    Number of faces shared with processor 11 = 75
    Number of processor patches = 5
    Number of processor faces = 186
    Number of boundary faces = 7179
Overriding DebugSwitches according to controlDict
    SolverPerformance 0;


Processor 11
    Number of cells = 3501
    Number of faces shared with processor 1 = 26
    Number of faces shared with processor 9 = 77
    Number of faces shared with processor 10 = 75
    Number of processor patches = 3
    Number of processor faces = 178
    Number of boundary faces = 7078

Number of processor faces = 938
Max number of cells = 3570 (0.9686770840698579% above average 3535.75)
Max number of processor patches = 7 (75% above average 4)
Max number of faces between processors = 190 (21.53518123667376% above average 156.3333333333333)

Time = 0

Processor 0: field transfer
Overriding DebugSwitches according to controlDict
    SolverPerformance 0;

Processor 1: field transfer
Overriding DebugSwitches according to controlDict
    SolverPerformance 0;

Processor 2: field transfer
Overriding DebugSwitches according to controlDict
    SolverPerformance 0;

Processor 3: field transfer
Overriding DebugSwitches according to controlDict
    SolverPerformance 0;

Processor 4: field transfer
Overriding DebugSwitches according to controlDict
    SolverPerformance 0;

Processor 5: field transfer
Overriding DebugSwitches according to controlDict
    SolverPerformance 0;

Processor 6: field transfer
Overriding DebugSwitches according to controlDict
    SolverPerformance 0;

Processor 7: field transfer
Overriding DebugSwitches according to controlDict
    SolverPerformance 0;

Processor 8: field transfer
Overriding DebugSwitches according to controlDict
    SolverPerformance 0;

Processor 9: field transfer
Overriding DebugSwitches according to controlDict
    SolverPerformance 0;

Processor 10: field transfer
Overriding DebugSwitches according to controlDict
    SolverPerformance 0;

Processor 11: field transfer
Overriding DebugSwitches according to controlDict
    SolverPerformance 0;


End

[d58cbdfd066d:00630] 11 more processes have sent help message help-mpi-btl-base.txt / btl:no-nics
[d58cbdfd066d:00630] Set MCA parameter "orte_base_help_aggregate" to 0 to see all help / error messages
I/O    : uncollated
Case   : /home/dafoamuser/mount
nProcs : 12
Hosts  :
(
    (d58cbdfd066d 12)
)
Pstream initialized with:
    floatTransfer      : 0
    nProcsSimpleSum    : 0
    commsType          : nonBlocking
    polling iterations : 0
Create time

Overriding DebugSwitches according to controlDict
    SolverPerformance 0;

Create mesh for time = 0
Initializing mesh and runtime for DASolver
DAOpton initialized 
I/O    : uncollated
Case   : /home/dafoamuser/mount
nProcs : 12
Hosts  :
(
    (d58cbdfd066d 12)
)
Pstream initialized with:
    floatTransfer      : 0
    nProcsSimpleSum    : 0
    commsType          : nonBlocking
    polling iterations : 0
Create time

Overriding DebugSwitches according to controlDict
    SolverPerformance 0;

Create mesh for time = 0
Initializing mesh and runtime for DASolver
DAOpton initialized 
Initializing fields for DASimpleFoam
Create simpleControl.

SIMPLE: no convergence criteria found. Calculations will run for 1000 steps.

Reading field p

Reading field U

Reading/calculating face flux field phi

Creating source term. 
Selecting incompressible transport model Newtonian
Selecting turbulence model type RAS
Selecting RAS turbulence model SpalartAllmaras
Selecting patchDistMethod meshWaveFrozen
No MRF models present

Adjoint States: 
4
(
U volVectorState
nuTilda modelState
phi surfaceScalarState
p volScalarState
)
Global Cells: 42429
Global Faces: 172124
Global Xv: 269094
Undecomposed points: 87796
Global Adjoint States: 384269

SIMPLE: no convergence criteria found. Calculations will run for 1000 steps.

initState: 
6
(
nuTilda 4.5e-05
phi 0.0158781860902637
U1 0
U2 0
p 0
U0 5
)
DACheckMesh Thresholds: 
maxNonOrth: 89.90000000000001
maxSkewness: 30
maxAspectRatio: 500000
maxIncorrectlyOrientedFaces: 0
    Adding all faces of patches 2(profile0 profile1) ...
    Found matching patch profile0 with 145 faces.
    Found matching patch profile1 with 0 faces.
    Adding all faces of patches 2(profile0 profile1) ...
    Found matching patch profile0 with 145 faces.
    Found matching patch profile1 with 0 faces.
Initializing fields for DASimpleFoam
Create simpleControl.

SIMPLE: no convergence criteria found. Calculations will run for 1000 steps.

Reading field p

Reading field U

Reading/calculating face flux field phi

Creating source term. 
Selecting incompressible transport model Newtonian
Selecting turbulence model type RAS
Selecting RAS turbulence model SpalartAllmaras
Selecting patchDistMethod meshWaveFrozen
No MRF models present

Adjoint States: 
4
(
U volVectorState
nuTilda modelState
phi surfaceScalarState
p volScalarState
)
Global Cells: 42429
Global Faces: 172124
Global Xv: 269094
Undecomposed points: 87796
Global Adjoint States: 384269

SIMPLE: no convergence criteria found. Calculations will run for 1000 steps.

initState: 
6
(
nuTilda 4.5e-05
phi 0.0158781860902637
U1 0
U2 0
p 0
U0 5
)
DACheckMesh Thresholds: 
maxNonOrth: 89.90000000000001
maxSkewness: 30
maxAspectRatio: 500000
maxIncorrectlyOrientedFaces: 0
    Adding all faces of patches 2(profile0 profile1) ...
    Found matching patch profile0 with 145 faces.
    Found matching patch profile1 with 0 faces.
    Adding all faces of patches 2(profile0 profile1) ...
    Found matching patch profile0 with 145 faces.
    Found matching patch profile1 with 0 faces.
DAFoam option dictionary: 
{
    solverName      DASimpleFoam;
    primalMinResTol 0.0001;
    primalObjStdTol
    {
        active          0;
        objFuncName     None;
        steps           200;
        tol             1e-05;
        tolDiff         100;
    }
    primalBC
    {
        U0
        {
            variable        U;
            patches         1 ( inout );
            value           3 ( 10 0 0 );
        }
        p0
        {
            variable        p;
            patches         1 ( inout );
            value           1 ( 0 );
        }
        nuTilda0
        {
            variable        nuTilda;
            patches         1 ( inout );
            value           1 ( 4.5e-05 );
        }
        useWallFunction 1;
    }
    normalizeStates
    {
        U               10;
        p               50;
        nuTilda         0.00045;
        phi             1;
    }
    objFunc
    {
        CD
        {
            part1
            {
                type            force;
                source          patchToFace;
                patches         2 ( profile0 profile1 );
                directionMode   parallelToFlow;
                alphaName       aoa;
                scale           0.1;
                addToAdjoint    1;
            }
        }
        CL
        {
            part1
            {
                type            force;
                source          patchToFace;
                patches         2 ( profile0 profile1 );
                directionMode   normalToFlow;
                alphaName       aoa;
                scale           0.1;
                addToAdjoint    1;
            }
        }
    }
    designVar
    {
        aoa
        {
            designVarType   AOA;
            patches         1 ( inout );
            flowAxis        x;
            normalAxis      y;
        }
        shape0
        {
            designVarType   FFD;
        }
        translate1
        {
            designVarType   FFD;
        }
        twist1
        {
            designVarType   FFD;
        }
        shape1
        {
            designVarType   FFD;
        }
    }
    designSurfaces  2 ( profile0 profile1 );
    couplingInfo
    {
        aerostructural
        {
            active          0;
            pRef            0;
            propMovement    0;
            couplingSurfaceGroups
            {
                wingGroup       2 ( wing wing_te );
            }
        }
        aerothermal
        {
            active          0;
            couplingSurfaceGroups
            {
                wallGroup       1 ( fin_wall );
            }
        }
        aeroacoustic
        {
            active          0;
            pRef            0;
            couplingSurfaceGroups
            {
                blade1Group     2 ( blade1_ps blade1_ss );
                blade2Group     1 ( blade2 );
            }
        }
    }
    aeroPropulsive
    {
    }
    primalOnly      0;
    fvSource
    {
    }
    adjEqnSolMethod Krylov;
    primalVarBounds
    {
        UMax            1000;
        UMin            -1000;
        pMax            50000;
        pMin            -50000;
        p_rghMax        50000;
        p_rghMin        -50000;
        eMax            500000;
        eMin            100000;
        TMax            1000;
        TMin            100;
        hMax            500000;
        hMin            100000;
        DMax            1e+16;
        DMin            -1e+16;
        rhoMax          5;
        rhoMin          0.2;
        nuTildaMax      1e+16;
        nuTildaMin      1e-16;
        kMax            1e+16;
        kMin            1e-16;
        omegaMax        1e+16;
        omegaMin        1e-16;
        epsilonMax      1e+16;
        epsilonMin      1e-16;
        ReThetatMax     1e+16;
        ReThetatMin     1e-16;
        gammaIntMax     1e+16;
        gammaIntMin     1e-16;
    }
    discipline      aero;
    multiPoint      0;
    nMultiPoints    1;
    adjPartDerivFDStep
    {
        State           1e-06;
        FFD             0.001;
        BC              0.01;
        AOA             0.001;
        ACTP            0.01;
        ACTD            0.01;
        ACTL            0.01;
    }
    transonicPCOption -1;
    unsteadyAdjoint
    {
        mode            None;
        nTimeInstances  -1;
        periodicity     -1;
        objFuncStartTime -1;
        objFuncEndTime  -1;
        objFuncTimeOperator None;
        PCMatPrecomputeInterval 100;
        PCMatUpdateInterval 1;
        reduceIO        1;
        additionalOutput 1 ( None );
        readZeroFields  1;
    }
    objFuncAvgStart 1;
    adjPCLag        10000;
    useAD
    {
        mode            reverse;
        dvName          None;
        seedIndex       -9999;
    }
    rigidBodyMotion
    {
        mode            dummy;
    }
    hasIterativeBC  0;
    useConstrainHbyA 0;
    regressionModel
    {
        active          0;
    }
    useMeanStates
    {
        active          0;
        start           0.5;
    }
    runStatus       None;
    printPYDAFOAMOptions 0;
    printDAOptions  1;
    debug           0;
    writeJacobians  1 ( None );
    printInterval   100;
    printIntervalUnsteady 500;
    primalMinResTolDiff 100;
    adjUseColoring  1;
    adjEqnOption
    {
        globalPCIters   0;
        asmOverlap      1;
        localPCIters    1;
        jacMatReOrdering rcm;
        pcFillLevel     1;
        gmresMaxIters   2000;
        gmresRestart    2000;
        gmresRelTol     1e-06;
        gmresAbsTol     1e-14;
        gmresTolDiff    100;
        useNonZeroInitGuess 0;
        useMGSO         0;
        printInfo       1;
        fpMaxIters      1000;
        fpRelTol        1e-06;
        fpMinResTolDiff 100;
        fpPCUpwind      0;
        dynAdjustTol    1;
    }
    normalizeResiduals 10 ( URes pRes p_rghRes nuTildaRes phiRes TRes DRes kRes omegaRes epsilonRes );
    maxResConLv4JacPCMat
    {
        pRes            2;
        phiRes          1;
        URes            2;
        TRes            2;
        nuTildaRes      2;
        kRes            2;
        epsilonRes      2;
        omegaRes        2;
        p_rghRes        2;
        DRes            2;
        gammaIntRes     2;
        ReThetatRes     2;
    }
    jacLowerBounds
    {
        dRdW            1e-30;
        dRdWPC          1e-30;
    }
    maxTractionBCIters 100;
    decomposeParDict
    {
        method          scotch;
        simpleCoeffs
        {
            n               3 ( 2 2 1 );
            delta           0.001;
        }
        preservePatches 1 ( None );
        singleProcessorFaceSets 1 ( None );
    }
    adjStateOrdering state;
    meshSurfaceFamily None;
    checkMeshThreshold
    {
        maxAspectRatio  500000;
        maxNonOrth      89.90000000000001;
        maxSkewness     30;
        maxIncorrectlyOrientedFaces 0;
    }
    writeSensMap    1 ( NONE );
    writeDeformedFFDs 0;
    writeDeformedConstraints 0;
    maxCorrectBCCalls 10;
    writeMinorIterations 0;
    runLowOrderPrimal4PC
    {
        active          0;
    }
    wingProp
    {
        test_propeller_default
        {
            active          0;
            nForceSections  10;
            axis            3 ( 1 0 0 );
            rotationCenter  3 { 0 };
            actEps          0.02;
            rotDir          right;
            interpScheme    Poly4Gauss;
            bladeName       blade;
        }
    }
    primalMinIters  1;
    tensorflow
    {
        active          0;
        modelName       model;
        nInputs         1;
        nOutputs        1;
        batchSize       1000;
    }
}

Init solver done! ElapsedClockTime 0.000000 s
Init solver done!. ElapsedCpuTime 0.490000 s
Reading OpenFOAM mesh information...
I/O    : uncollated
Case   : /home/dafoamuser/mount
nProcs : 12
Hosts  :
(
    (d58cbdfd066d 12)
)
Pstream initialized with:
    floatTransfer      : 0
    nProcsSimpleSum    : 0
    commsType          : nonBlocking
    polling iterations : 0
Reading the OpenFOAM mesh..
Overriding DebugSwitches according to controlDict
    SolverPerformance 0;

Finalising parallel run
Checking if we need to compress the mesh files
Checking if we need to compress the mesh files
I/O    : uncollated
pyDAFoam initialization done!
+----------------------------------------+
|          All IDWarp Options:           |
+----------------------------------------+
{'LdefFact': 1.0,
 'aExp': 3.0,
 'alpha': 0.25,
 'bExp': 5.0,
 'bucketSize': 8,
 'cornerAngle': 30.0,
 'errTol': 0.0005,
 'evalMode': 'fast',
 'fileType': 'OpenFOAM',
 'gridFile': '/home/dafoamuser/mount',
 'restartFile': None,
 'specifiedSurfaces': None,
 'symmTol': 1e-06,
 'symmetryPlanes': [[[0, 0, 0], [0, 0, 0.1]], [[0, 0, 0.1], [0, 0, 0.1]]],
 'symmetrySurfaces': None,
 'useRotations': True,
 'zeroCornerRotations': True}
I/O    : uncollated
Case   : /home/dafoamuser/mount
nProcs : 12
Hosts  :
(
    (d58cbdfd066d 12)
)
Pstream initialized with:
    floatTransfer      : 0
    nProcsSimpleSum    : 0
    commsType          : nonBlocking
    polling iterations : 0
Reading the OpenFOAM mesh..
Overriding DebugSwitches according to controlDict
    SolverPerformance 0;

Finalising parallel run
Checking if we need to compress the mesh files
Checking if we need to compress the mesh files
#------------------------------#
 Total Volume Nodes :     89698 
#------------------------------#
I/O    : uncollated
+-------------------- Symmetry Planes -------------------+
|           Point                        Normal          |
| (  0.000   0.000   0.000)    (  0.000   0.000   0.100) |
| (  0.000   0.000   0.100)    (  0.000   0.000   0.100) |
+--------------------------------------------------------+
#--------------------------------#
 Unique Surface Nodes :      2250 
#--------------------------------#
 Computing Denomenator Estimate...
 Load Balancing...
 Finished Mesh Initialization.
OrderedDict([('inout', [0]), ('procBoundary0to1', [1]), ('procBoundary0to3', [2]), ('procBoundary0to7', [3]), ('profile0', [4]), ('profile1', [5]), ('symmetry1', [6]), ('symmetry2', [7]), ('allSurfaces', [0, 1, 2, 3, 4, 5, 6, 7]), ('allWalls', [4, 5]), ('designSurfaces', [4, 5])])
dRdWT Jacobian Free created!
 -> Warning: 47 point(s) not projected to tolerance: 1e-12. Max Error:  1.49012e-09 ; RMS Error:  1.05367e-09
List of Points is: (pt, delta):
[      1.7326     -0.93144          0.1] [  2.2204e-16  -3.3307e-16  -1.4901e-09]
[      1.7324     -0.93066          0.1] [  4.4409e-16  -2.2204e-16  -1.4901e-09]
[      1.7321     -0.92901          0.1] [  8.8818e-16  -3.3307e-16  -1.4901e-09]
[       1.732     -0.92815          0.1] [  2.2204e-16            0  -1.4901e-09]
[      1.7323      -0.9298          0.1] [  4.4409e-16  -2.2204e-16  -1.4901e-09]
[      1.7319     -0.92733          0.1] [  4.4409e-16            0  -1.4901e-09]
[      1.7317     -0.92649          0.1] [  4.4409e-16  -2.2204e-16  -1.4901e-09]
[      1.7226     -0.87717          0.1] [           0            0  -1.4901e-09]
[      1.7216     -0.87238          0.1] [  6.6613e-16  -1.1102e-16  -1.4901e-09]
[      1.7205     -0.86695          0.1] [  2.2204e-16  -1.1102e-16  -1.4901e-09]
[      1.7194     -0.86159          0.1] [  2.2204e-16            0  -1.4901e-09]
[      1.7333     -0.94216          0.1] [  6.6613e-16  -3.3307e-16  -1.4901e-09]
[      1.7337     -0.94147          0.1] [ -2.2204e-16            0  -1.4901e-09]
[      1.7338     -0.94068          0.1] [  4.4409e-16  -3.3307e-16  -1.4901e-09]
[      1.7339     -0.93985          0.1] [           0   2.2204e-16  -1.4901e-09]
[      1.7338     -0.93901          0.1] [  2.2204e-16  -2.2204e-16  -1.4901e-09]
[      1.7337     -0.93816          0.1] [  1.1102e-15  -6.6613e-16  -1.4901e-09]
[      1.7336     -0.93731          0.1] [  4.4409e-16  -1.1102e-16  -1.4901e-09]
[      1.7334     -0.93644          0.1] [  6.6613e-16  -3.3307e-16  -1.4901e-09]
[      1.7333     -0.93561          0.1] [  2.2204e-16  -1.1102e-16  -1.4901e-09]
[       1.733     -0.93394          0.1] [  6.6613e-16  -3.3307e-16  -1.4901e-09]
[      1.7331     -0.93475          0.1] [  6.6613e-16  -3.3307e-16  -1.4901e-09]
[      1.7329     -0.93309          0.1] [           0  -1.1102e-16  -1.4901e-09]
[      1.7327      -0.9323          0.1] [           0  -1.1102e-16  -1.4901e-09]
[      1.7316     -0.92565          0.1] [           0   1.1102e-16  -1.4901e-09]
[      1.7314     -0.92483          0.1] [  2.2204e-16  -2.2204e-16  -1.4901e-09]
[      1.7311     -0.92318          0.1] [           0  -1.1102e-16  -1.4901e-09]
[      1.7313     -0.92398          0.1] [ -4.4409e-16  -1.1102e-16  -1.4901e-09]
[       1.731      -0.9223          0.1] [  8.8818e-16  -4.4409e-16  -1.4901e-09]
[      1.7308     -0.92149          0.1] [           0  -1.1102e-16  -1.4901e-09]
[      1.7307     -0.92053          0.1] [  6.6613e-16  -1.1102e-16  -1.4901e-09]
[      1.7305     -0.91961          0.1] [  2.2204e-16  -2.2204e-16  -1.4901e-09]
[      1.7303     -0.91841          0.1] [  4.4409e-16  -4.4409e-16  -1.4901e-09]
[      1.7301     -0.91717          0.1] [  6.6613e-16            0  -1.4901e-09]
[      1.7294     -0.91374          0.1] [  6.6613e-16  -3.3307e-16  -1.4901e-09]
[      1.7291     -0.91153          0.1] [  6.6613e-16  -4.4409e-16  -1.4901e-09]
[      1.7298     -0.91553          0.1] [ -2.2204e-16  -1.1102e-16  -1.4901e-09]
[      1.7286     -0.90907          0.1] [ -2.2204e-16  -1.1102e-16  -1.4901e-09]
[      1.7281     -0.90635          0.1] [  6.6613e-16  -1.1102e-16  -1.4901e-09]
[      1.7257     -0.89356          0.1] [  2.2204e-16  -1.5099e-14  -1.4901e-09]
[       1.725     -0.88985          0.1] [  4.4409e-16  -2.5535e-15  -1.4901e-09]
[      1.7276     -0.90334          0.1] [  6.6613e-16  -4.4409e-16  -1.4901e-09]
[       1.727     -0.90029          0.1] [ -4.4409e-16            0  -1.4901e-09]
[      1.7264     -0.89692          0.1] [  4.4409e-16  -1.1102e-16  -1.4901e-09]
[      1.7243     -0.88598          0.1] [  4.4409e-16  -5.5511e-16  -1.4901e-09]
[      1.7235     -0.88179          0.1] [  6.6613e-16  -1.1102e-16  -1.4901e-09]
[      1.7182     -0.85558          0.1] [  8.8818e-16  -3.3307e-16  -1.4901e-09]
 -> Warning: 77 point(s) not projected to tolerance: 1e-12. Max Error:  1.49012e-09 ; RMS Error:  1.05367e-09
List of Points is: (pt, delta):
[      1.6135     -0.60478          0.1] [           0            0  -1.4901e-09]
[      1.6066     -0.59621          0.1] [           0            0  -1.4901e-09]
[        1.61     -0.60041          0.1] [  2.2204e-16  -1.1102e-16  -1.4901e-09]
[      1.5996      -0.5877          0.1] [           0  -2.2204e-16  -1.4901e-09]
[      1.5925     -0.57921          0.1] [           0            0  -1.4901e-09]
[       1.596     -0.58338          0.1] [  4.4409e-16  -1.1102e-16  -1.4901e-09]
[       1.603     -0.59186          0.1] [  2.2204e-16            0  -1.4901e-09]
[      1.5854     -0.57067          0.1] [           0  -1.1102e-16  -1.4901e-09]
[      1.5818     -0.56638          0.1] [  2.2204e-16            0  -1.4901e-09]
[      1.5747     -0.55783          0.1] [           0            0  -1.4901e-09]
[      1.5782     -0.56208          0.1] [ -2.2204e-16            0  -1.4901e-09]
[      1.5677      -0.5492          0.1] [  2.2204e-16  -1.1102e-16  -1.4901e-09]
[      1.5711     -0.55345          0.1] [  2.2204e-16  -1.1102e-16  -1.4901e-09]
[      1.5889      -0.5749          0.1] [           0            0  -1.4901e-09]
[       1.678     -0.71092          0.1] [  2.2204e-16            0  -1.4901e-09]
[      1.6757     -0.70535          0.1] [ -2.2204e-16   1.1102e-16  -1.4901e-09]
[      1.6711     -0.69457          0.1] [           0  -2.2204e-16  -1.4901e-09]
[      1.6734     -0.69989          0.1] [           0            0  -1.4901e-09]
[      1.6686     -0.68912          0.1] [  2.2204e-16  -3.3307e-16  -1.4901e-09]
[      1.6661     -0.68404          0.1] [           0            0  -1.4901e-09]
[      1.6609      -0.6738          0.1] [  2.2204e-16  -1.1102e-16  -1.4901e-09]
[      1.6634     -0.67869          0.1] [  1.5099e-14  -9.9032e-14  -1.4901e-09]
[      1.6842     -0.72763          0.1] [           0            0  -1.4901e-09]
[      1.6822     -0.72218          0.1] [           0            0  -1.4901e-09]
[      1.6801     -0.71636          0.1] [           0  -1.1102e-16  -1.4901e-09]
[      1.6369     -0.63571          0.1] [           0            0  -1.4901e-09]
[        1.64     -0.64019          0.1] [  4.4409e-16  -1.1102e-16  -1.4901e-09]
[      1.6304     -0.62673          0.1] [           0            0  -1.4901e-09]
[      1.6336      -0.6311          0.1] [ -2.2204e-16  -1.1102e-16  -1.4901e-09]
[      1.6237     -0.61786          0.1] [   1.088e-14  -5.4401e-14  -1.4901e-09]
[       1.627      -0.6222          0.1] [ -2.2204e-16   1.1102e-16  -1.4901e-09]
[      1.6203     -0.61343          0.1] [           0   1.1102e-16  -1.4901e-09]
[      1.6169     -0.60908          0.1] [ -2.2204e-16            0  -1.4901e-09]
[      1.5607     -0.54049          0.1] [           0            0  -1.4901e-09]
[      1.5641     -0.54477          0.1] [           0            0  -1.4901e-09]
[      1.5572     -0.53604          0.1] [  4.4409e-16  -1.1102e-16  -1.4901e-09]
[      1.5128      -0.4791          0.1] [  4.4409e-16  -2.7756e-16  -1.4901e-09]
[      1.5162     -0.48331          0.1] [           0            0  -1.4901e-09]
[      1.5092     -0.47476          0.1] [           0            0  -1.4901e-09]
[       1.717     -0.84977          0.1] [  2.2204e-16            0  -1.4901e-09]
[      1.7182     -0.85558          0.1] [  8.8818e-16  -3.3307e-16  -1.4901e-09]
[      1.7156     -0.84353          0.1] [           0            0  -1.4901e-09]
[      1.7143     -0.83739          0.1] [  4.4409e-16            0  -1.4901e-09]
[      1.7129     -0.83115          0.1] [ -4.4409e-16            0  -1.4901e-09]
[        1.71     -0.81857          0.1] [           0            0  -1.4901e-09]
[      1.7085     -0.81202          0.1] [           0            0  -1.4901e-09]
[       1.707     -0.80588          0.1] [ -2.2204e-16  -2.2204e-16  -1.4901e-09]
[      1.7054     -0.79931          0.1] [           0            0  -1.4901e-09]
[      1.7115     -0.82475          0.1] [  6.6613e-16  -1.1102e-16  -1.4901e-09]
[      1.7038     -0.79325          0.1] [  2.2204e-16  -2.2204e-16  -1.4901e-09]
[      1.7006     -0.78089          0.1] [           0            0  -1.4901e-09]
[      1.7022     -0.78677          0.1] [ -2.2204e-16  -1.1102e-16  -1.4901e-09]
[      1.6989     -0.77452          0.1] [           0   1.1102e-16  -1.4901e-09]
[      1.6973     -0.76882          0.1] [  4.4409e-16  -1.1102e-16  -1.4901e-09]
[      1.6938     -0.75697          0.1] [  4.4409e-16  -1.1102e-16  -1.4901e-09]
[      1.6919     -0.75079          0.1] [ -2.2204e-16            0  -1.4901e-09]
[      1.6954     -0.76257          0.1] [  2.2204e-16  -1.1102e-16  -1.4901e-09]
[      1.6901     -0.74525          0.1] [  2.2204e-16  -1.1102e-16  -1.4901e-09]
[      1.6863     -0.73364          0.1] [           0            0  -1.4901e-09]
[      1.6881     -0.73914          0.1] [           0            0  -1.4901e-09]
[      1.6463     -0.64945          0.1] [           0   1.1102e-16  -1.4901e-09]
[      1.6432     -0.64486          0.1] [           0  -1.1102e-16  -1.4901e-09]
[      1.6553     -0.66387          0.1] [  1.1768e-14  -7.4274e-14  -1.4901e-09]
[       1.658     -0.66863          0.1] [           0            0  -1.4901e-09]
[      1.6523     -0.65892          0.1] [           0            0  -1.4901e-09]
[      1.6494     -0.65423          0.1] [           0            0  -1.4901e-09]
[      1.5538     -0.53169          0.1] [  4.4409e-16   5.9952e-15  -1.4901e-09]
[      1.5504     -0.52727          0.1] [  2.2204e-16  -1.1102e-16  -1.4901e-09]
[      1.5436     -0.51845          0.1] [           0            0  -1.4901e-09]
[      1.5469     -0.52283          0.1] [  2.2204e-16            0  -1.4901e-09]
[      1.5368     -0.50962          0.1] [ -2.2204e-16   1.1102e-16  -1.4901e-09]
[      1.5299     -0.50079          0.1] [ -2.2204e-16  -1.1102e-16  -1.4901e-09]
[      1.5333     -0.50515          0.1] [ -2.2204e-16            0  -1.4901e-09]
[      1.5401     -0.51397          0.1] [  6.6613e-16  -3.3307e-16  -1.4901e-09]
[      1.5265     -0.49638          0.1] [           0            0  -1.4901e-09]
[      1.5197     -0.48769          0.1] [ -2.2204e-16            0  -1.4901e-09]
[      1.5231       -0.492          0.1] [           0            0  -1.4901e-09]
 -> Warning: 61 point(s) not projected to tolerance: 1e-12. Max Error:  1.49012e-09 ; RMS Error:  1.05367e-09
List of Points is: (pt, delta):
[    0.025864     0.062167          0.1] [ -6.9389e-18  -2.0817e-17  -1.4901e-09]
[    0.027567     0.068142          0.1] [  6.9389e-18   5.5511e-17  -1.4901e-09]
[    0.029372     0.074218          0.1] [ -3.1225e-17  -9.7145e-17  -1.4901e-09]
[    0.044018      0.11388          0.1] [  1.3878e-17   4.1633e-17  -1.4901e-09]
[    0.046448      0.11917          0.1] [           0   1.3878e-17  -1.4901e-09]
[    0.048945      0.12435          0.1] [  2.0817e-17   5.5511e-17  -1.4901e-09]
[    0.051529      0.12946          0.1] [  6.9389e-18            0  -1.4901e-09]
[     0.05419      0.13448          0.1] [ -2.0817e-17            0  -1.4901e-09]
[    0.056927       0.1394          0.1] [  6.9389e-18   5.5511e-17  -1.4901e-09]
[    0.096376      0.19209          0.1] [  5.5511e-17   5.5511e-17  -1.4901e-09]
[     0.10015      0.19606          0.1] [  1.3878e-17   2.7756e-17  -1.4901e-09]
[     0.10395      0.19996          0.1] [  4.1633e-17   2.7756e-17  -1.4901e-09]
[     0.13995      0.23362          0.1] [  8.3267e-17   5.5511e-17  -1.4901e-09]
[     0.14413      0.23718          0.1] [  2.7756e-17            0  -1.4901e-09]
[      0.1484      0.24074          0.1] [           0   5.5511e-17  -1.4901e-09]
[     0.15261      0.24419          0.1] [           0   2.7756e-17  -1.4901e-09]
[     0.15698      0.24769          0.1] [  2.7756e-17            0  -1.4901e-09]
[     0.16126      0.25106          0.1] [           0            0  -1.4901e-09]
[      0.1657      0.25447          0.1] [  5.5511e-17            0  -1.4901e-09]
[      0.1701      0.25777          0.1] [           0            0  -1.4901e-09]
[     0.17457      0.26106          0.1] [  2.4203e-14   -5.218e-15  -1.4901e-09]
[     0.17911      0.26432          0.1] [           0   5.5511e-17  -1.4901e-09]
[     0.23178      0.29643          0.1] [ -2.7756e-17            0  -1.4901e-09]
[     0.23689      0.29898          0.1] [ -4.9682e-15  -4.0135e-14  -1.4901e-09]
[     0.24222      0.30154          0.1] [  8.3267e-17            0  -1.4901e-09]
[     0.24744      0.30394          0.1] [  2.7756e-17   5.5511e-17  -1.4901e-09]
[    0.031215     0.080154          0.1] [ -1.3878e-17  -4.1633e-17  -1.4901e-09]
[    0.033125     0.085999          0.1] [  1.3878e-17   6.9389e-17  -1.4901e-09]
[    0.035142     0.091821          0.1] [  2.0817e-17   5.5511e-17  -1.4901e-09]
[    0.037211     0.097446          0.1] [  3.4694e-17   9.7145e-17  -1.4901e-09]
[    0.039409      0.10306          0.1] [ -2.7756e-17  -2.7756e-17  -1.4901e-09]
[    0.041666      0.10851          0.1] [  4.8572e-17   9.7145e-17  -1.4901e-09]
[    0.059751      0.14424          0.1] [ -6.9389e-18   2.7756e-17  -1.4901e-09]
[    0.062667        0.149          0.1] [  1.3878e-17   2.7756e-17  -1.4901e-09]
[    0.065636      0.15362          0.1] [ -2.7756e-17  -5.5511e-17  -1.4901e-09]
[    0.068752      0.15824          0.1] [  6.9389e-17   8.3267e-17  -1.4901e-09]
[    0.071866      0.16266          0.1] [ -1.3878e-17   2.7756e-17  -1.4901e-09]
[    0.075177      0.16714          0.1] [  4.1633e-17   5.5511e-17  -1.4901e-09]
[    0.078466      0.17141          0.1] [           0            0  -1.4901e-09]
[    0.081939      0.17573          0.1] [  4.1633e-17   5.5511e-17  -1.4901e-09]
[    0.085421      0.17989          0.1] [ -4.1633e-17  -5.5511e-17  -1.4901e-09]
[     0.08902      0.18403          0.1] [           0   5.5511e-17  -1.4901e-09]
[     0.09267      0.18809          0.1] [  4.1633e-17            0  -1.4901e-09]
[      0.1078      0.20383          0.1] [  1.3878e-17            0  -1.4901e-09]
[     0.11169      0.20768          0.1] [           0  -2.7756e-17  -1.4901e-09]
[      0.1156      0.21146          0.1] [  2.7756e-17   8.3267e-17  -1.4901e-09]
[     0.11958      0.21526          0.1] [  2.7756e-17  -8.3267e-17  -1.4901e-09]
[     0.12355      0.21897          0.1] [ -1.3878e-17  -2.7756e-17  -1.4901e-09]
[     0.12762      0.22271          0.1] [           0            0  -1.4901e-09]
[     0.13167      0.22635          0.1] [           0   5.5511e-17  -1.4901e-09]
[      0.1358      0.23001          0.1] [  2.7756e-17   2.7756e-17  -1.4901e-09]
[     0.18363      0.26749          0.1] [           0            0  -1.4901e-09]
[     0.18826      0.27066          0.1] [  2.7756e-17   5.5511e-17  -1.4901e-09]
[     0.19288      0.27374          0.1] [ -5.5511e-17  -5.5511e-17  -1.4901e-09]
[     0.19754      0.27676          0.1] [  2.7756e-17  -5.5511e-17  -1.4901e-09]
[     0.20231      0.27976          0.1] [  2.7756e-17  -5.5511e-17  -1.4901e-09]
[       0.207      0.28264          0.1] [  2.7756e-17   5.5511e-17  -1.4901e-09]
[      0.2119      0.28555          0.1] [           0            0  -1.4901e-09]
[     0.21668      0.28831          0.1] [  2.7756e-17            0  -1.4901e-09]
[     0.22169       0.2911          0.1] [ -2.7756e-17   5.5511e-17  -1.4901e-09]
[     0.22664      0.29376          0.1] [  1.1102e-16            0  -1.4901e-09]
 -> Warning: 96 point(s) not projected to tolerance: 1e-12. Max Error:  1.49012e-09 ; RMS Error:  1.05367e-09
List of Points is: (pt, delta):
[       1.319     -0.32327          0.1] [           0  -5.5511e-17  -1.4901e-09]
[      1.3099     -0.31664          0.1] [           0            0  -1.4901e-09]
[      1.3145     -0.32004          0.1] [ -2.2204e-16  -5.5511e-17  -1.4901e-09]
[      1.3237     -0.32658          0.1] [           0            0  -1.4901e-09]
[      1.3055     -0.31332          0.1] [  4.4409e-16            0  -1.4901e-09]
[      1.5058     -0.47062          0.1] [ -2.2204e-16            0  -1.4901e-09]
[      1.5092     -0.47476          0.1] [           0            0  -1.4901e-09]
[      1.4987     -0.46225          0.1] [           0   5.5511e-17  -1.4901e-09]
[      1.5022     -0.46634          0.1] [  4.4409e-16  -2.2204e-16  -1.4901e-09]
[      1.4951     -0.45806          0.1] [  2.2204e-16            0  -1.4901e-09]
[      1.4221     -0.39173          0.1] [  2.2204e-16  -1.1102e-16  -1.4901e-09]
[      1.4266     -0.39504          0.1] [           0   1.1102e-16  -1.4901e-09]
[      1.3755     -0.36067          0.1] [  2.2204e-16            0  -1.4901e-09]
[      1.3804     -0.36374          0.1] [           0            0  -1.4901e-09]
[        1.39     -0.36981          0.1] [           0  -5.5511e-17  -1.4901e-09]
[      1.3946     -0.37283          0.1] [  2.2204e-16  -5.5511e-17  -1.4901e-09]
[      1.3851     -0.36673          0.1] [ -2.2204e-16            0  -1.4901e-09]
[      1.4131     -0.38528          0.1] [  2.2204e-16  -2.2204e-16  -1.4901e-09]
[       1.404       -0.379          0.1] [           0  -5.5511e-17  -1.4901e-09]
[      1.4087     -0.38219          0.1] [           0            0  -1.4901e-09]
[      1.4177     -0.38855          0.1] [           0            0  -1.4901e-09]
[      1.3994     -0.37596          0.1] [  4.6629e-15   5.3846e-15  -1.4901e-09]
[      1.4523     -0.41565          0.1] [           0            0  -1.4901e-09]
[      1.4565      -0.4193          0.1] [           0            0  -1.4901e-09]
[      1.4439     -0.40859          0.1] [ -8.8818e-16  -8.8818e-16  -1.4901e-09]
[      1.4482     -0.41216          0.1] [           0  -5.5511e-17  -1.4901e-09]
[      1.4354     -0.40173          0.1] [  2.2204e-16  -1.1102e-16  -1.4901e-09]
[      1.4397     -0.40518          0.1] [           0            0  -1.4901e-09]
[       1.431     -0.39837          0.1] [  2.2204e-16   5.5511e-17  -1.4901e-09]
[      1.0639     -0.20041          0.1] [           0   5.5511e-17  -1.4901e-09]
[      1.0711     -0.19967          0.1] [           0            0  -1.4901e-09]
[      1.0785     -0.19912          0.1] [  2.2204e-16   2.7756e-17  -1.4901e-09]
[      1.0859     -0.19879          0.1] [ -2.2204e-16            0  -1.4901e-09]
[      1.0934      -0.1987          0.1] [           0   2.7756e-17  -1.4901e-09]
[      1.1008     -0.19887          0.1] [           0            0  -1.4901e-09]
[      1.1082     -0.19931          0.1] [           0   2.7756e-17  -1.4901e-09]
[      1.1153     -0.20001          0.1] [ -2.2204e-16            0  -1.4901e-09]
[      1.2269     -0.25107          0.1] [  4.4409e-16  -5.5511e-17  -1.4901e-09]
[      1.2314     -0.25439          0.1] [  4.4409e-16  -1.6653e-16  -1.4901e-09]
[      1.2402     -0.26108          0.1] [ -2.2204e-16  -5.5511e-17  -1.4901e-09]
[      1.2358     -0.25772          0.1] [  2.2204e-16  -5.5511e-17  -1.4901e-09]
[      1.2179      -0.2446          0.1] [ -2.2204e-15  -2.0539e-15  -1.4901e-09]
[      1.2225     -0.24787          0.1] [           0  -5.5511e-17  -1.4901e-09]
[      1.2088     -0.23834          0.1] [  4.4409e-16  -8.3267e-17  -1.4901e-09]
[      1.2135     -0.24152          0.1] [ -2.2204e-16            0  -1.4901e-09]
[      1.1414     -0.20515          0.1] [           0   2.7756e-17  -1.4901e-09]
[      1.1476     -0.20701          0.1] [  4.4409e-16  -5.5511e-17  -1.4901e-09]
[      1.2576     -0.27487          0.1] [ -6.2172e-15   5.5511e-16  -1.4901e-09]
[      1.2489     -0.26791          0.1] [           0  -5.5511e-17  -1.4901e-09]
[      1.2533     -0.27142          0.1] [  2.2204e-16            0  -1.4901e-09]
[      1.2619     -0.27838          0.1] [           0            0  -1.4901e-09]
[      1.2705     -0.28539          0.1] [  2.2204e-16            0  -1.4901e-09]
[      1.2663      -0.2819          0.1] [           0            0  -1.4901e-09]
[      1.2791     -0.29242          0.1] [           0   5.5511e-17  -1.4901e-09]
[      1.2835     -0.29599          0.1] [ -1.7764e-15   2.8311e-15  -1.4901e-09]
[      1.2749     -0.28896          0.1] [           0            0  -1.4901e-09]
[      1.2446     -0.26452          0.1] [  2.2204e-16  -5.5511e-17  -1.4901e-09]
[      1.2966     -0.30643          0.1] [           0            0  -1.4901e-09]
[       1.301     -0.30988          0.1] [           0   5.5511e-17  -1.4901e-09]
[      1.2878     -0.29943          0.1] [           0   1.1102e-16  -1.4901e-09]
[      1.2922     -0.30297          0.1] [           0  -5.5511e-17  -1.4901e-09]
[      1.3282     -0.32976          0.1] [ -4.4409e-16            0  -1.4901e-09]
[      1.3329     -0.33296          0.1] [           0            0  -1.4901e-09]
[      1.3517      -0.3455          0.1] [           0            0  -1.4901e-09]
[      1.3564     -0.34858          0.1] [           0            0  -1.4901e-09]
[       1.366     -0.35464          0.1] [           0            0  -1.4901e-09]
[      1.3612     -0.35164          0.1] [           0            0  -1.4901e-09]
[      1.3422     -0.33927          0.1] [           0            0  -1.4901e-09]
[       1.347     -0.34242          0.1] [           0            0  -1.4901e-09]
[      1.3376     -0.33615          0.1] [  2.2204e-16   5.5511e-17  -1.4901e-09]
[      1.4915     -0.45402          0.1] [  4.4409e-16  -1.1102e-16  -1.4901e-09]
[       1.484     -0.44596          0.1] [ -2.2204e-16  -1.1102e-16  -1.4901e-09]
[      1.4877     -0.44993          0.1] [           0   5.5511e-17  -1.4901e-09]
[      1.4802     -0.44197          0.1] [  2.2204e-16  -5.5511e-17  -1.4901e-09]
[      1.4686     -0.43037          0.1] [  4.4409e-16  -1.6653e-16  -1.4901e-09]
[      1.4725      -0.4342          0.1] [  4.4409e-16            0  -1.4901e-09]
[      1.4605     -0.42291          0.1] [  2.2204e-16  -5.5511e-17  -1.4901e-09]
[      1.4646     -0.42665          0.1] [           0  -5.5511e-17  -1.4901e-09]
[      1.4764     -0.43806          0.1] [ -2.2204e-16  -7.7716e-16  -1.4901e-09]
[      1.3708      -0.3577          0.1] [  2.2204e-16  -1.1102e-16  -1.4901e-09]
[      1.0501     -0.20237          0.1] [           0   2.7756e-17  -1.4901e-09]
[      1.0568     -0.20134          0.1] [  4.4409e-16            0  -1.4901e-09]
[      1.1531     -0.20888          0.1] [  2.2204e-16  -2.7756e-17  -1.4901e-09]
[      1.1642     -0.21326          0.1] [  2.2204e-16  -5.5511e-17  -1.4901e-09]
[      1.1589     -0.21106          0.1] [           0            0  -1.4901e-09]
[      1.1696     -0.21571          0.1] [  2.2204e-16  -2.7756e-17  -1.4901e-09]
[      1.1799     -0.22086          0.1] [           0            0  -1.4901e-09]
[      1.1747      -0.2182          0.1] [           0  -2.7756e-17  -1.4901e-09]
[      1.1223     -0.20099          0.1] [ -2.2204e-16   2.7756e-17  -1.4901e-09]
[      1.1289     -0.20216          0.1] [           0  -2.7756e-17  -1.4901e-09]
[      1.1355     -0.20362          0.1] [           0  -2.7756e-17  -1.4901e-09]
[      1.1849     -0.22359          0.1] [           0            0  -1.4901e-09]
[      1.1947     -0.22934          0.1] [           0  -5.5511e-17  -1.4901e-09]
[      1.1898     -0.22642          0.1] [ -2.2204e-16   2.7756e-17  -1.4901e-09]
[      1.1994     -0.23228          0.1] [           0            0  -1.4901e-09]
[      1.2042     -0.23534          0.1] [           0            0  -1.4901e-09]
 -> Warning: 98 point(s) not projected to tolerance: 1e-12. Max Error:  1.49012e-09 ; RMS Error:  1.05367e-09
List of Points is: (pt, delta):
[      0.9346     -0.24181          0.1] [           0            0  -1.4901e-09]
[     0.93469     -0.24105          0.1] [           0  -2.7756e-17  -1.4901e-09]
[     0.93759     -0.24166          0.1] [  2.2204e-16   2.7756e-17  -1.4901e-09]
[     0.93518     -0.24062          0.1] [  3.3307e-16            0  -1.4901e-09]
[     0.93574     -0.24028          0.1] [  3.3307e-16            0  -1.4901e-09]
[     0.93633     -0.23996          0.1] [  1.1102e-16   2.7756e-17  -1.4901e-09]
[     0.93693     -0.23964          0.1] [           0            0  -1.4901e-09]
[     0.93755     -0.23932          0.1] [           0            0  -1.4901e-09]
[      0.9455     -0.23889          0.1] [           0  -2.7756e-17  -1.4901e-09]
[     0.94619     -0.23864          0.1] [  1.1102e-16            0  -1.4901e-09]
[     0.94694     -0.23837          0.1] [           0   2.7756e-17  -1.4901e-09]
[     0.94764     -0.23812          0.1] [  2.2204e-16  -8.3267e-17  -1.4901e-09]
[     0.94839     -0.23785          0.1] [ -1.1102e-16  -2.7756e-17  -1.4901e-09]
[     0.94914     -0.23758          0.1] [           0   8.3267e-17  -1.4901e-09]
[       0.946      -0.2352          0.1] [  2.2204e-16   5.5511e-17  -1.4901e-09]
[     0.94993     -0.23729          0.1] [  1.1102e-16            0  -1.4901e-09]
[     0.95081     -0.23698          0.1] [  1.1102e-16            0  -1.4901e-09]
[     0.95177     -0.23663          0.1] [           0            0  -1.4901e-09]
[     0.95288     -0.23623          0.1] [           0            0  -1.4901e-09]
[      0.9542     -0.23576          0.1] [           0  -2.7756e-17  -1.4901e-09]
[     0.95568     -0.23523          0.1] [           0  -2.7756e-17  -1.4901e-09]
[      0.9575     -0.23459          0.1] [           0  -2.7756e-17  -1.4901e-09]
[     0.95942     -0.23391          0.1] [  1.1102e-16   2.7756e-17  -1.4901e-09]
[     0.96176     -0.23308          0.1] [  1.6209e-14   1.7403e-14  -1.4901e-09]
[     0.95015     -0.23332          0.1] [           0            0  -1.4901e-09]
[     0.95095     -0.23296          0.1] [  2.2204e-16  -5.5511e-17  -1.4901e-09]
[     0.95186     -0.23256          0.1] [ -1.1102e-16  -8.3267e-17  -1.4901e-09]
[     0.95286     -0.23212          0.1] [           0   2.7756e-17  -1.4901e-09]
[     0.95399     -0.23163          0.1] [  1.1102e-16   5.5511e-17  -1.4901e-09]
[     0.95531     -0.23106          0.1] [  1.1102e-16            0  -1.4901e-09]
[     0.95675     -0.23045          0.1] [           0   2.7756e-17  -1.4901e-09]
[     0.95847     -0.22972          0.1] [ -2.2204e-16  -5.5511e-17  -1.4901e-09]
[      0.9603     -0.22896          0.1] [           0            0  -1.4901e-09]
[     0.96242     -0.22809          0.1] [           0            0  -1.4901e-09]
[      0.9695     -0.23042          0.1] [           0            0  -1.4901e-09]
[     0.96464     -0.22719          0.1] [  1.1102e-16  -8.3267e-17  -1.4901e-09]
[     0.97256     -0.22939          0.1] [  2.2204e-16   8.3267e-17  -1.4901e-09]
[     0.97551     -0.22841          0.1] [           0   2.7756e-17  -1.4901e-09]
[     0.96709     -0.22621          0.1] [  3.3307e-16   2.7756e-17  -1.4901e-09]
[     0.96961     -0.22522          0.1] [ -3.3307e-16  -2.7756e-17  -1.4901e-09]
[     0.97231     -0.22418          0.1] [  1.1102e-16   2.7756e-17  -1.4901e-09]
[     0.97499     -0.22316          0.1] [ -1.1102e-16   5.5511e-17  -1.4901e-09]
[     0.97789     -0.22208          0.1] [ -1.1102e-16            0  -1.4901e-09]
[     0.97889      -0.2273          0.1] [ -3.3307e-16  -5.5511e-17  -1.4901e-09]
[     0.98228     -0.22621          0.1] [           0   2.7756e-17  -1.4901e-09]
[     0.98618     -0.22499          0.1] [  1.1102e-16            0  -1.4901e-09]
[     0.99024     -0.22375          0.1] [           0   2.7756e-17  -1.4901e-09]
[      0.9949     -0.22238          0.1] [ -1.1102e-16            0  -1.4901e-09]
[     0.93507     -0.24218          0.1] [ -2.2204e-16            0  -1.4901e-09]
[      0.9357     -0.24222          0.1] [           0            0  -1.4901e-09]
[      0.9363     -0.24208          0.1] [           0   2.7756e-17  -1.4901e-09]
[     0.93695     -0.24187          0.1] [           0            0  -1.4901e-09]
[      0.9383     -0.24142          0.1] [           0  -2.7756e-17  -1.4901e-09]
[     0.93896      -0.2412          0.1] [           0            0  -1.4901e-09]
[     0.93971     -0.24094          0.1] [  2.2204e-16   5.5511e-17  -1.4901e-09]
[     0.94039      -0.2407          0.1] [           0  -2.7756e-17  -1.4901e-09]
[     0.94115     -0.24044          0.1] [  1.1102e-16   2.7756e-17  -1.4901e-09]
[     0.93818     -0.23899          0.1] [  1.4433e-15   1.2768e-15  -1.4901e-09]
[     0.94184     -0.24019          0.1] [  1.1102e-16            0  -1.4901e-09]
[      0.9426     -0.23992          0.1] [           0            0  -1.4901e-09]
[     0.94329     -0.23968          0.1] [           0            0  -1.4901e-09]
[     0.94405      -0.2394          0.1] [           0   2.7756e-17  -1.4901e-09]
[     0.94475     -0.23916          0.1] [           0  -2.7756e-17  -1.4901e-09]
[     0.93881     -0.23867          0.1] [           0            0  -1.4901e-09]
[     0.93946     -0.23834          0.1] [ -1.1102e-16            0  -1.4901e-09]
[     0.94011     -0.23802          0.1] [  2.2204e-16   5.5511e-17  -1.4901e-09]
[     0.94076      -0.2377          0.1] [  1.1102e-16   2.7756e-17  -1.4901e-09]
[     0.94141     -0.23738          0.1] [  4.4409e-16   1.6653e-16  -1.4901e-09]
[     0.94206     -0.23707          0.1] [           0  -8.3267e-17  -1.4901e-09]
[     0.94272     -0.23675          0.1] [           0   2.7756e-17  -1.4901e-09]
[     0.94337     -0.23644          0.1] [  1.1102e-16            0  -1.4901e-09]
[     0.94403     -0.23613          0.1] [           0            0  -1.4901e-09]
[     0.94468     -0.23582          0.1] [ -2.2204e-16   1.1102e-16  -1.4901e-09]
[     0.94534     -0.23551          0.1] [ -1.1102e-16  -2.7756e-17  -1.4901e-09]
[     0.96409     -0.23227          0.1] [           0            0  -1.4901e-09]
[     0.96685     -0.23132          0.1] [ -1.1102e-16  -2.7756e-17  -1.4901e-09]
[     0.94666      -0.2349          0.1] [           0  -2.7756e-17  -1.4901e-09]
[     0.94733     -0.23459          0.1] [  2.2204e-16   5.5511e-17  -1.4901e-09]
[     0.94799     -0.23429          0.1] [  1.1102e-16  -2.7756e-17  -1.4901e-09]
[     0.94869     -0.23398          0.1] [ -1.1102e-16            0  -1.4901e-09]
[     0.94938     -0.23366          0.1] [  2.2204e-16  -5.5511e-17  -1.4901e-09]
[     0.98074     -0.22104          0.1] [  1.1102e-16  -2.7756e-17  -1.4901e-09]
[     0.98385     -0.21992          0.1] [  2.4425e-15    2.498e-15  -1.4901e-09]
[     0.98704     -0.21881          0.1] [  1.1102e-16            0  -1.4901e-09]
[     0.99054     -0.21762          0.1] [           0  -2.7756e-17  -1.4901e-09]
[      0.9943     -0.21637          0.1] [           0            0  -1.4901e-09]
[     0.99845     -0.21503          0.1] [ -2.2204e-16  -2.7756e-17  -1.4901e-09]
[     0.99973       -0.221          0.1] [           0            0  -1.4901e-09]
[      1.0052      -0.2195          0.1] [           0   5.5511e-17  -1.4901e-09]
[      1.0029     -0.21364          0.1] [           0  -2.7756e-17  -1.4901e-09]
[      1.0079     -0.21216          0.1] [  2.2204e-16   2.7756e-17  -1.4901e-09]
[      1.0131     -0.21068          0.1] [  2.2204e-16  -5.5511e-17  -1.4901e-09]
[      1.0188     -0.20916          0.1] [  2.2204e-16            0  -1.4901e-09]
[      1.0246     -0.20766          0.1] [ -2.2204e-16  -5.5511e-17  -1.4901e-09]
[      1.0306     -0.20624          0.1] [           0  -5.5511e-17  -1.4901e-09]
[       1.037     -0.20484          0.1] [  2.2204e-16            0  -1.4901e-09]
[      1.0433     -0.20359          0.1] [           0            0  -1.4901e-09]
[      1.0501     -0.20237          0.1] [           0   2.7756e-17  -1.4901e-09]
 -> Warning: 97 point(s) not projected to tolerance: 1e-12. Max Error:  1.49012e-09 ; RMS Error:  1.05367e-09
List of Points is: (pt, delta):
[      1.7285     -0.92954          0.1] [  4.4409e-16  -2.2204e-16  -1.4901e-09]
[      1.7282     -0.92788          0.1] [  6.6613e-16  -3.3307e-16  -1.4901e-09]
[      1.7284     -0.92869          0.1] [  4.4409e-16  -2.2204e-16  -1.4901e-09]
[      1.7281     -0.92703          0.1] [ -2.2204e-16            0  -1.4901e-09]
[      1.7279     -0.92624          0.1] [  8.8818e-16  -5.5511e-16  -1.4901e-09]
[       1.727     -0.92075          0.1] [           0   1.1102e-16  -1.4901e-09]
[      1.7268     -0.91961          0.1] [  4.4409e-16            0  -1.4901e-09]
[      1.7262     -0.91679          0.1] [           0            0  -1.4901e-09]
[      1.7265     -0.91828          0.1] [  1.1102e-15  -6.6613e-16  -1.4901e-09]
[      1.7252     -0.91093          0.1] [  2.2204e-16            0  -1.4901e-09]
[      1.7259     -0.91508          0.1] [           0   1.1102e-16  -1.4901e-09]
[      1.7256     -0.91312          0.1] [  8.8818e-16  -3.3307e-16  -1.4901e-09]
[      1.7247     -0.90847          0.1] [ -2.2204e-16            0  -1.4901e-09]
[      1.7242     -0.90578          0.1] [ -2.2204e-16  -1.1102e-16  -1.4901e-09]
[      1.7134     -0.85198          0.1] [ -2.2204e-16            0  -1.4901e-09]
[      1.7107     -0.84001          0.1] [           0  -2.2204e-16  -1.4901e-09]
[      1.7121       -0.846          0.1] [           0  -1.1102e-16  -1.4901e-09]
[      1.6777     -0.72427          0.1] [  8.8818e-16  -2.4425e-15  -1.4901e-09]
[      1.6756     -0.71874          0.1] [  -4.885e-15  -6.5503e-15  -1.4901e-09]
[      1.6709     -0.70745          0.1] [  4.4409e-16  -1.1102e-16  -1.4901e-09]
[      1.6685     -0.70185          0.1] [           0  -1.1102e-16  -1.4901e-09]
[      1.6732     -0.71292          0.1] [  2.2204e-16            0  -1.4901e-09]
[      1.6552      -0.6754          0.1] [           0  -1.1102e-16  -1.4901e-09]
[      1.6524     -0.67038          0.1] [           0   1.1102e-16  -1.4901e-09]
[      1.6634     -0.69106          0.1] [           0   1.1102e-16  -1.4901e-09]
[       1.666     -0.69645          0.1] [  2.2204e-16  -2.9976e-15  -1.4901e-09]
[      1.6608     -0.68577          0.1] [           0            0  -1.4901e-09]
[      1.6581     -0.68056          0.1] [           0   1.1102e-16  -1.4901e-09]
[      1.6267     -0.63256          0.1] [           0            0  -1.4901e-09]
[       1.731     -0.94215          0.1] [ -2.2204e-16   2.2204e-16  -1.4901e-09]
[      1.7307     -0.94152          0.1] [  6.6613e-16  -3.3307e-16  -1.4901e-09]
[      1.7315      -0.9426          0.1] [ -4.4409e-16   1.1102e-16  -1.4901e-09]
[      1.7321     -0.94284          0.1] [  4.4409e-16  -1.1102e-16  -1.4901e-09]
[      1.7328     -0.94267          0.1] [  6.6613e-16  -3.3307e-16  -1.4901e-09]
[      1.7333     -0.94216          0.1] [  6.6613e-16  -3.3307e-16  -1.4901e-09]
[      1.7305     -0.94089          0.1] [  4.4409e-16  -3.3307e-16  -1.4901e-09]
[      1.7303     -0.93944          0.1] [ -2.2204e-16   1.1102e-16  -1.4901e-09]
[      1.7304     -0.94015          0.1] [  2.2204e-16  -3.3307e-16  -1.4901e-09]
[      1.7301     -0.93864          0.1] [  4.4409e-16  -2.2204e-16  -1.4901e-09]
[        1.73     -0.93786          0.1] [  6.6613e-16  -5.5511e-16  -1.4901e-09]
[      1.7273     -0.92278          0.1] [  2.2204e-16  -2.2204e-16  -1.4901e-09]
[      1.7271     -0.92182          0.1] [  8.8818e-16  -5.5511e-16  -1.4901e-09]
[      1.7298     -0.93703          0.1] [ -2.2204e-16            0  -1.4901e-09]
[      1.7297      -0.9362          0.1] [  6.6613e-16  -4.4409e-16  -1.4901e-09]
[      1.7293     -0.93372          0.1] [           0            0  -1.4901e-09]
[      1.7296     -0.93538          0.1] [  2.2204e-16  -3.3307e-16  -1.4901e-09]
[      1.7294     -0.93453          0.1] [           0            0  -1.4901e-09]
[      1.7291     -0.93286          0.1] [           0   1.1102e-16  -1.4901e-09]
[       1.729     -0.93204          0.1] [  6.6613e-16  -1.3323e-15  -1.4901e-09]
[      1.7288      -0.9312          0.1] [ -8.8818e-16  -1.2212e-15  -1.4901e-09]
[      1.7287     -0.93036          0.1] [  4.4409e-16  -1.1102e-16  -1.4901e-09]
[      1.7278     -0.92538          0.1] [           0   2.2204e-16  -1.4901e-09]
[      1.7276     -0.92456          0.1] [  2.2204e-16  -2.2204e-16  -1.4901e-09]
[      1.7275     -0.92367          0.1] [ -2.2204e-16   1.1102e-16  -1.4901e-09]
[      1.7225     -0.89689          0.1] [           0            0  -1.4901e-09]
[      1.7237     -0.90296          0.1] [           0  -2.2204e-16  -1.4901e-09]
[      1.7231      -0.8999          0.1] [  2.2204e-16   1.1102e-16  -1.4901e-09]
[      1.7219      -0.8936          0.1] [  1.1102e-15  -3.3307e-16  -1.4901e-09]
[      1.7213      -0.8905          0.1] [  2.2204e-16  -1.1102e-16  -1.4901e-09]
[      1.7167     -0.86787          0.1] [           0  -1.1102e-16  -1.4901e-09]
[      1.7157     -0.86284          0.1] [ -2.2204e-16   1.1102e-16  -1.4901e-09]
[      1.7146      -0.8576          0.1] [  2.2204e-16            0  -1.4901e-09]
[      1.7206     -0.88705          0.1] [           0            0  -1.4901e-09]
[        1.72     -0.88384          0.1] [           0   1.1102e-16  -1.4901e-09]
[      1.7185      -0.8765          0.1] [           0            0  -1.4901e-09]
[      1.7192     -0.88007          0.1] [  4.4409e-16  -4.4409e-16  -1.4901e-09]
[      1.7176     -0.87217          0.1] [  2.2204e-16            0  -1.4901e-09]
[      1.7093     -0.83368          0.1] [ -4.4409e-16            0  -1.4901e-09]
[      1.7079     -0.82751          0.1] [           0            0  -1.4901e-09]
[      1.7033     -0.80857          0.1] [ -2.2204e-16            0  -1.4901e-09]
[      1.7064     -0.82113          0.1] [  2.2204e-16  -2.2204e-16  -1.4901e-09]
[      1.7049      -0.8149          0.1] [           0            0  -1.4901e-09]
[      1.7017     -0.80239          0.1] [  2.2204e-16   1.1102e-16  -1.4901e-09]
[      1.7001     -0.79606          0.1] [           0   1.1102e-16  -1.4901e-09]
[      1.6234     -0.62819          0.1] [ -4.4409e-16            0  -1.4901e-09]
[      1.6166     -0.61934          0.1] [           0            0  -1.4901e-09]
[      1.6199     -0.62365          0.1] [           0   1.1102e-16  -1.4901e-09]
[      1.6096     -0.61059          0.1] [           0  -1.1102e-16  -1.4901e-09]
[       1.613     -0.61488          0.1] [           0            0  -1.4901e-09]
[      1.6879     -0.75371          0.1] [ -2.2204e-16  -6.6613e-16  -1.4901e-09]
[       1.686     -0.74762          0.1] [  2.2204e-16            0  -1.4901e-09]
[       1.684      -0.7419          0.1] [ -2.2204e-16            0  -1.4901e-09]
[      1.6799     -0.73024          0.1] [           0   1.1102e-16  -1.4901e-09]
[      1.6819     -0.73586          0.1] [           0            0  -1.4901e-09]
[      1.6985     -0.79002          0.1] [           0            0  -1.4901e-09]
[      1.6951     -0.77778          0.1] [  4.4409e-16  -2.2204e-16  -1.4901e-09]
[      1.6968      -0.7837          0.1] [  2.2204e-16            0  -1.4901e-09]
[      1.6933     -0.77151          0.1] [           0  -1.1102e-16  -1.4901e-09]
[      1.6916     -0.76567          0.1] [  4.4409e-16  -2.2204e-16  -1.4901e-09]
[      1.6897      -0.7595          0.1] [  6.6613e-16            0  -1.4901e-09]
[        1.64     -0.65098          0.1] [  4.4409e-16  -5.5511e-16  -1.4901e-09]
[      1.6463     -0.66054          0.1] [  2.2204e-16  -1.1102e-16  -1.4901e-09]
[      1.6493     -0.66536          0.1] [  6.6613e-16  -2.2204e-16  -1.4901e-09]
[      1.6431     -0.65567          0.1] [  4.2411e-14  -1.7186e-13  -1.4901e-09]
[      1.6367     -0.64629          0.1] [           0            0  -1.4901e-09]
[      1.6301     -0.63715          0.1] [ -2.2204e-16  -2.2204e-16  -1.4901e-09]
[      1.6334     -0.64167          0.1] [           0  -1.1102e-16  -1.4901e-09]
 -> Warning: 131 point(s) not projected to tolerance: 1e-12. Max Error:  1.49012e-09 ; RMS Error:  1.05367e-09
List of Points is: (pt, delta):
[      1.3423     -0.35162          0.1] [           0   5.5511e-17  -1.4901e-09]
[      1.3712     -0.36967          0.1] [           0            0  -1.4901e-09]
[      1.3568     -0.36074          0.1] [           0   5.5511e-17  -1.4901e-09]
[      1.5917     -0.58918          0.1] [           0            0  -1.4901e-09]
[      1.5773     -0.57233          0.1] [  2.2204e-16            0  -1.4901e-09]
[      1.5845     -0.58076          0.1] [           0            0  -1.4901e-09]
[       1.588     -0.58489          0.1] [           0  -1.1102e-16  -1.4901e-09]
[      1.5808     -0.57648          0.1] [           0            0  -1.4901e-09]
[      1.5989     -0.59766          0.1] [  4.4409e-16  -1.1102e-16  -1.4901e-09]
[      1.6024     -0.60192          0.1] [           0            0  -1.4901e-09]
[      1.5952     -0.59336          0.1] [           0  -2.2204e-16  -1.4901e-09]
[      1.5701     -0.56385          0.1] [           0   1.1102e-16  -1.4901e-09]
[      1.5737     -0.56806          0.1] [  2.2204e-16            0  -1.4901e-09]
[      1.5665     -0.55959          0.1] [  2.2204e-16            0  -1.4901e-09]
[       1.563      -0.5553          0.1] [  2.2204e-16            0  -1.4901e-09]
[      1.4365     -0.41455          0.1] [ -2.2204e-16  -1.1102e-16  -1.4901e-09]
[      1.4967     -0.47301          0.1] [ -2.2204e-16  -5.5511e-17  -1.4901e-09]
[      1.4893     -0.46461          0.1] [ -2.2204e-16  -5.5511e-17  -1.4901e-09]
[       1.493     -0.46876          0.1] [ -1.5543e-15   -2.609e-15  -1.4901e-09]
[      1.4818     -0.45638          0.1] [  2.2204e-16  -1.1102e-16  -1.4901e-09]
[      1.5003     -0.47725          0.1] [           0  -5.5511e-17  -1.4901e-09]
[      1.4046     -0.39111          0.1] [           0            0  -1.4901e-09]
[      1.3952     -0.38481          0.1] [           0  -1.1102e-16  -1.4901e-09]
[         1.4     -0.38797          0.1] [ -2.2204e-16   5.5511e-17  -1.4901e-09]
[      1.4185     -0.40088          0.1] [           0  -5.5511e-17  -1.4901e-09]
[      1.4276      -0.4076          0.1] [ -2.2204e-16   5.5511e-17  -1.4901e-09]
[      1.4321      -0.4111          0.1] [           0            0  -1.4901e-09]
[      1.4231     -0.40427          0.1] [  2.2204e-16  -1.1102e-16  -1.4901e-09]
[      1.4093     -0.39435          0.1] [  2.2204e-16  -5.5511e-17  -1.4901e-09]
[      1.4139     -0.39761          0.1] [  2.2204e-16            0  -1.4901e-09]
[      1.3808     -0.37566          0.1] [  4.4409e-16  -1.1102e-16  -1.4901e-09]
[      1.3857      -0.3787          0.1] [           0  -5.5511e-17  -1.4901e-09]
[      1.3761      -0.3727          0.1] [           0            0  -1.4901e-09]
[      1.3905     -0.38175          0.1] [  2.2204e-16            0  -1.4901e-09]
[      1.1208     -0.21109          0.1] [ -4.4409e-16   2.7756e-17  -1.4901e-09]
[      1.0928     -0.20788          0.1] [           0            0  -1.4901e-09]
[      1.1002     -0.20831          0.1] [  2.2204e-16   2.7756e-17  -1.4901e-09]
[      1.1071     -0.20898          0.1] [           0   2.7756e-17  -1.4901e-09]
[      1.1142     -0.20994          0.1] [           0            0  -1.4901e-09]
[      1.1685     -0.22779          0.1] [  2.2204e-16  -3.0531e-16  -1.4901e-09]
[      1.1839     -0.23619          0.1] [           0            0  -1.4901e-09]
[      1.1737     -0.23049          0.1] [           0            0  -1.4901e-09]
[      1.1789     -0.23334          0.1] [  2.2204e-16  -2.7756e-17  -1.4901e-09]
[      1.2173     -0.25818          0.1] [           0            0  -1.4901e-09]
[      1.2487     -0.28208          0.1] [ -1.1768e-14    4.996e-16  -1.4901e-09]
[      1.2398     -0.27511          0.1] [           0            0  -1.4901e-09]
[      1.2443     -0.27863          0.1] [           0            0  -1.4901e-09]
[       1.231     -0.26826          0.1] [           0            0  -1.4901e-09]
[      1.2219     -0.26152          0.1] [ -2.2204e-16            0  -1.4901e-09]
[      1.2265      -0.2649          0.1] [           0            0  -1.4901e-09]
[      1.2355     -0.27172          0.1] [           0            0  -1.4901e-09]
[      1.1937     -0.24219          0.1] [           0            0  -1.4901e-09]
[      1.1986     -0.24531          0.1] [           0  -3.6082e-16  -1.4901e-09]
[       1.208     -0.25164          0.1] [ -5.5511e-15  -5.7732e-15  -1.4901e-09]
[      1.2127     -0.25491          0.1] [           0            0  -1.4901e-09]
[      1.2033     -0.24845          0.1] [ -1.9984e-15  -2.6923e-15  -1.4901e-09]
[      1.1889      -0.2392          0.1] [           0  -2.7756e-17  -1.4901e-09]
[      1.1275     -0.21253          0.1] [  1.3323e-15   1.0825e-15  -1.4901e-09]
[      1.1338     -0.21414          0.1] [           0  -1.1102e-16  -1.4901e-09]
[      1.1519     -0.22026          0.1] [  2.2204e-16  -2.7756e-17  -1.4901e-09]
[        1.14       -0.216          0.1] [           0            0  -1.4901e-09]
[      1.1461     -0.21805          0.1] [           0            0  -1.4901e-09]
[      1.1576     -0.22265          0.1] [           0            0  -1.4901e-09]
[      1.1631     -0.22514          0.1] [           0   2.7756e-17  -1.4901e-09]
[       1.253     -0.28558          0.1] [           0            0  -1.4901e-09]
[      1.2574     -0.28908          0.1] [           0            0  -1.4901e-09]
[      1.3471      -0.3547          0.1] [           0            0  -1.4901e-09]
[      1.3519      -0.3577          0.1] [  2.2204e-16  -1.1102e-16  -1.4901e-09]
[      1.3615      -0.3637          0.1] [           0   5.5511e-17  -1.4901e-09]
[      1.3664     -0.36673          0.1] [           0            0  -1.4901e-09]
[      1.3098      -0.3298          0.1] [           0            0  -1.4901e-09]
[      1.3009     -0.32332          0.1] [  2.2204e-16            0  -1.4901e-09]
[      1.3054     -0.32665          0.1] [           0   3.3307e-16  -1.4901e-09]
[       1.279     -0.30643          0.1] [ -1.3101e-14   3.1641e-14  -1.4901e-09]
[      1.2617     -0.29255          0.1] [ -4.4409e-16   5.5511e-17  -1.4901e-09]
[      1.2703     -0.29951          0.1] [ -2.2204e-16            0  -1.4901e-09]
[      1.2747     -0.30304          0.1] [ -6.6613e-16   9.4369e-16  -1.4901e-09]
[      1.2661     -0.29609          0.1] [  2.2204e-16            0  -1.4901e-09]
[      1.2877     -0.31331          0.1] [ -1.1102e-15   8.3822e-15  -1.4901e-09]
[      1.2921     -0.31669          0.1] [           0            0  -1.4901e-09]
[      1.2834     -0.30992          0.1] [           0            0  -1.4901e-09]
[      1.2965     -0.32007          0.1] [           0            0  -1.4901e-09]
[       1.319     -0.33616          0.1] [           0  -5.5511e-17  -1.4901e-09]
[      1.3236      -0.3393          0.1] [           0   1.1102e-16  -1.4901e-09]
[      1.3329     -0.34548          0.1] [           0            0  -1.4901e-09]
[      1.3376      -0.3486          0.1] [           0            0  -1.4901e-09]
[      1.3282     -0.34242          0.1] [  2.2204e-16            0  -1.4901e-09]
[      1.3145     -0.33304          0.1] [           0            0  -1.4901e-09]
[      1.6096     -0.61059          0.1] [           0  -1.1102e-16  -1.4901e-09]
[       1.606     -0.60623          0.1] [           0            0  -1.4901e-09]
[      1.5595     -0.55106          0.1] [           0  -1.1102e-16  -1.4901e-09]
[      1.5526     -0.54247          0.1] [ -2.2204e-16   1.1102e-16  -1.4901e-09]
[       1.556      -0.5467          0.1] [  2.2204e-16  -1.1102e-16  -1.4901e-09]
[       1.474     -0.44833          0.1] [  4.4409e-16  -1.1102e-16  -1.4901e-09]
[      1.4779     -0.45232          0.1] [  2.2204e-16  -5.5511e-17  -1.4901e-09]
[      1.4855     -0.46044          0.1] [  2.2204e-16  -1.1102e-16  -1.4901e-09]
[       1.466     -0.44047          0.1] [           0  -5.5511e-17  -1.4901e-09]
[      1.4579     -0.43283          0.1] [           0   5.5511e-17  -1.4901e-09]
[       1.462     -0.43664          0.1] [           0  -2.7756e-16  -1.4901e-09]
[      1.4495     -0.42538          0.1] [  2.2204e-16  -1.1102e-16  -1.4901e-09]
[      1.4409     -0.41814          0.1] [ -2.2204e-16            0  -1.4901e-09]
[      1.4452     -0.42173          0.1] [           0   5.5511e-17  -1.4901e-09]
[      1.4537      -0.4291          0.1] [  2.2204e-16  -1.1102e-16  -1.4901e-09]
[      1.4701     -0.44438          0.1] [  4.4409e-16  -1.1102e-16  -1.4901e-09]
[      1.5285     -0.51194          0.1] [           0            0  -1.4901e-09]
[      1.5457     -0.53381          0.1] [  4.4409e-16  -1.1102e-16  -1.4901e-09]
[      1.5388     -0.52506          0.1] [ -2.2204e-16            0  -1.4901e-09]
[      1.5422     -0.52938          0.1] [ -2.2204e-16  -1.1102e-16  -1.4901e-09]
[       1.549     -0.53806          0.1] [           0            0  -1.4901e-09]
[      1.5353     -0.52066          0.1] [           0  -1.1102e-16  -1.4901e-09]
[      1.5319     -0.51627          0.1] [  2.2204e-16            0  -1.4901e-09]
[      1.5146     -0.49453          0.1] [           0   5.5511e-17  -1.4901e-09]
[      1.5216     -0.50322          0.1] [           0  -1.1102e-16  -1.4901e-09]
[       1.525     -0.50751          0.1] [           0            0  -1.4901e-09]
[       1.518     -0.49879          0.1] [  2.2204e-16            0  -1.4901e-09]
[      1.5075     -0.48586          0.1] [           0   5.5511e-17  -1.4901e-09]
[       1.511     -0.49012          0.1] [           0            0  -1.4901e-09]
[      1.5039     -0.48152          0.1] [           0  -5.5511e-17  -1.4901e-09]
[      1.0052      -0.2195          0.1] [           0   5.5511e-17  -1.4901e-09]
[      1.0108     -0.21806          0.1] [           0            0  -1.4901e-09]
[       1.017     -0.21654          0.1] [           0            0  -1.4901e-09]
[       1.023     -0.21515          0.1] [  4.4409e-16   1.3878e-16  -1.4901e-09]
[      1.0296     -0.21374          0.1] [           0   2.7756e-17  -1.4901e-09]
[       1.036     -0.21251          0.1] [           0            0  -1.4901e-09]
[      1.0429     -0.21132          0.1] [           0            0  -1.4901e-09]
[      1.0495     -0.21033          0.1] [           0   2.7756e-17  -1.4901e-09]
[      1.0566     -0.20941          0.1] [  2.2204e-16            0  -1.4901e-09]
[      1.0635     -0.20871          0.1] [  2.4425e-15   2.6645e-15  -1.4901e-09]
[      1.0709     -0.20817          0.1] [  2.2204e-16            0  -1.4901e-09]
[      1.0781     -0.20784          0.1] [           0            0  -1.4901e-09]
[      1.0856     -0.20774          0.1] [           0  -5.5511e-17  -1.4901e-09]
 -> Warning: 107 point(s) not projected to tolerance: 1e-12. Max Error:   1.6297e-07 ; RMS Error:  4.55566e-08
List of Points is: (pt, delta):
[   7.758e-05    -0.069548          0.1] [  2.7959e-17   1.3878e-16  -1.4901e-09]
[  0.00010578    -0.068744          0.1] [ -1.9719e-17  -9.7145e-17  -1.4901e-09]
[  0.00014589     -0.06789          0.1] [   2.163e-17   1.1102e-16  -1.4901e-09]
[  0.00019679    -0.067002          0.1] [  1.3796e-17   8.3267e-17  -1.4901e-09]
[  0.00025757    -0.066102          0.1] [  2.8569e-17   1.6653e-16  -1.4901e-09]
[  0.00033105    -0.065183          0.1] [  1.4257e-17   8.3267e-17  -1.4901e-09]
[  0.00041434    -0.064294          0.1] [  1.1709e-17   6.9389e-17  -1.4901e-09]
[  0.00051362    -0.063388          0.1] [ -1.2902e-17  -8.3267e-17  -1.4901e-09]
[   0.0027036    -0.069942          0.1] [  5.6379e-18   1.3878e-17  -1.4901e-09]
[   0.0029404    -0.069365  -3.5932e-36] [ -2.5806e-08   1.0545e-08   3.0575e-33]
[   0.0029404    -0.069365          0.1] [ -2.4738e-08   1.0109e-08  -1.4901e-09]
[   0.0032084     -0.06871  -3.5932e-36] [ -3.9683e-08   1.6248e-08   4.9178e-16]
[   0.0032084     -0.06871          0.1] [ -3.8621e-08   1.5813e-08  -1.4901e-09]
[   0.0034687    -0.068075  -3.5932e-36] [  -4.122e-08    1.691e-08    1.021e-16]
[   0.0034687    -0.068075          0.1] [ -4.0164e-08   1.6477e-08  -1.4901e-09]
[    0.003746      -0.0674  -3.5932e-36] [ -4.9063e-08    2.017e-08   5.6598e-33]
[    0.003746      -0.0674          0.1] [ -4.8014e-08   1.9738e-08  -1.4901e-09]
[   0.0040195    -0.066735  -3.5932e-36] [  -5.383e-08   2.2175e-08   6.1765e-33]
[   0.0040195    -0.066735          0.1] [ -5.2787e-08   2.1746e-08  -1.4901e-09]
[  0.00061863     -0.06254          0.1] [  1.7889e-17   1.1102e-16  -1.4901e-09]
[  0.00073885    -0.061655          0.1] [  -1.236e-17  -6.9389e-17  -1.4901e-09]
[   0.0008567    -0.060833          0.1] [  3.1854e-16  -1.6584e-15  -1.4901e-09]
[  0.00098605    -0.059956          0.1] [    4.12e-18  -1.4572e-16  -1.4901e-09]
[   0.0011095    -0.059129          0.1] [ -1.7347e-17  -1.1102e-16  -1.4901e-09]
[   0.0060281    -0.061897  -3.5932e-36] [    -6.3e-08   2.6361e-08   7.3869e-17]
[   0.0060281    -0.061897          0.1] [ -6.2003e-08   2.5943e-08  -1.4901e-09]
[   0.0063198    -0.061201  -3.5932e-36] [ -4.7525e-08   1.9932e-08   5.2112e-33]
[   0.0063198    -0.061201          0.1] [ -4.6534e-08   1.9516e-08  -1.4901e-09]
[   0.0066063    -0.060518  -3.5932e-36] [ -6.3723e-08   2.6786e-08    6.946e-33]
[   0.0066063    -0.060518          0.1] [ -6.2738e-08   2.6372e-08  -1.4901e-09]
[    0.006904    -0.059811  -3.5932e-36] [ -6.6249e-08   2.7914e-08   7.6324e-18]
[    0.006904    -0.059811          0.1] [  -6.527e-08   2.7502e-08  -1.4901e-09]
[   0.0077719    -0.057758  -3.5932e-36] [ -7.2317e-08   3.0687e-08   8.1861e-16]
[   0.0077719    -0.057758          0.1] [ -7.1358e-08    3.028e-08  -1.4901e-09]
[   0.0080682    -0.057061  -3.5932e-36] [  -6.779e-08   2.8836e-08   7.6274e-16]
[   0.0080682    -0.057061          0.1] [ -6.6838e-08    2.843e-08  -1.4901e-09]
[   0.0083571    -0.056383  -3.5932e-36] [ -8.4867e-08   3.6186e-08   9.4924e-16]
[   0.0083571    -0.056383          0.1] [ -8.3921e-08   3.5782e-08  -1.4901e-09]
[   0.0086605    -0.055672  -3.5932e-36] [ -9.8087e-08   4.1928e-08   1.0903e-15]
[   0.0086605    -0.055672          0.1] [ -9.7147e-08   4.1526e-08  -1.4901e-09]
[   0.0089633    -0.054964  -3.5932e-36] [ -1.0146e-07   4.3478e-08   1.1207e-15]
[   0.0089633    -0.054964          0.1] [ -1.0052e-07   4.3078e-08  -1.4901e-09]
[   0.0092971    -0.054187  -3.5932e-36] [ -1.1404e-07   4.9007e-08    1.251e-16]
[   0.0092971    -0.054187          0.1] [ -1.1311e-07   4.8609e-08  -1.4901e-09]
[   0.0096414    -0.053387  -3.5932e-36] [ -1.3845e-07    5.967e-08    1.448e-32]
[   0.0096414    -0.053387          0.1] [ -1.3753e-07   5.9274e-08  -1.4901e-09]
[    0.010035    -0.052476  -3.5932e-36] [ -1.4958e-07   6.4685e-08   2.8768e-16]
[    0.010035    -0.052476          0.1] [ -1.4867e-07   6.4292e-08  -1.4901e-09]
[   0.0066934    -0.024696          0.1] [ -6.0715e-18  -4.1633e-17  -1.4901e-09]
[   0.0073191    -0.021155          0.1] [ -2.2551e-17  -1.2837e-16  -1.4901e-09]
[   0.0080299    -0.017207          0.1] [  1.7347e-18   2.7756e-17  -1.4901e-09]
[   0.0087654    -0.013195          0.1] [  -3.296e-17  -1.8215e-16  -1.4901e-09]
[    0.009623   -0.0086149          0.1] [  3.0011e-16  -3.8546e-15  -1.4901e-09]
[    0.010536   -0.0038396          0.1] [  1.9082e-17   8.1532e-17  -1.4901e-09]
[    0.011571    0.0014288          0.1] [  1.7347e-18   1.3227e-17  -1.4901e-09]
[    0.012697    0.0070261          0.1] [  2.6021e-17   1.2924e-16  -1.4901e-09]
[    0.013894     0.012799          0.1] [ -1.7347e-18  -1.7347e-18  -1.4901e-09]
[    0.022558     0.049888          0.1] [  6.9389e-18   2.0817e-17  -1.4901e-09]
[    0.024153     0.055927          0.1] [  6.9389e-18   2.7756e-17  -1.4901e-09]
[    0.025864     0.062167          0.1] [ -6.9389e-18  -2.0817e-17  -1.4901e-09]
[  0.00041451     -0.07165          0.1] [  1.0788e-17   1.3878e-17  -1.4901e-09]
[  0.00014798    -0.071013          0.1] [  2.5587e-17   1.1102e-16  -1.4901e-09]
[  7.3894e-05    -0.070315          0.1] [  8.3077e-18   2.7756e-17  -1.4901e-09]
[  0.00089862    -0.071934          0.1] [  1.2251e-17   1.3878e-17  -1.4901e-09]
[   0.0014075    -0.071894          0.1] [  3.8381e-17   9.7145e-17  -1.4901e-09]
[   0.0018334    -0.071562          0.1] [  2.8189e-18  -5.5511e-17  -1.4901e-09]
[   0.0021929    -0.071058          0.1] [  2.8623e-17   6.9389e-17  -1.4901e-09]
[   0.0024389    -0.070566          0.1] [ -2.5587e-17  -6.9389e-17  -1.4901e-09]
[   0.0043054    -0.066042  -3.5932e-36] [ -5.3554e-08    2.211e-08   6.1106e-33]
[   0.0043054    -0.066042          0.1] [ -5.2518e-08   2.1682e-08  -1.4901e-09]
[   0.0045836    -0.065369  -3.5932e-36] [ -5.6856e-08   2.3523e-08   6.4519e-33]
[   0.0045836    -0.065369          0.1] [ -5.5826e-08   2.3097e-08  -1.4901e-09]
[   0.0048767    -0.064661  -3.5932e-36] [ -6.3934e-08   2.6511e-08    3.605e-32]
[   0.0048767    -0.064661          0.1] [  -6.291e-08   2.6087e-08  -1.4901e-09]
[   0.0051571    -0.063986  -3.5932e-36] [ -6.0239e-08   2.5034e-08   6.7589e-33]
[   0.0051571    -0.063986          0.1] [ -5.9222e-08   2.4611e-08  -1.4901e-09]
[    0.005452    -0.063277  -3.5932e-36] [ -4.7966e-08   1.9979e-08   1.4649e-16]
[    0.005452    -0.063277          0.1] [ -4.6956e-08   1.9558e-08  -1.4901e-09]
[...]
nuTilda Initial residual: 0.008385558818484129
nuTilda   Final residual: 0.0005122821869168228
Bounding nuTilda>1e-16
yPlus min: 0.01331482597848305 max: 32.97299130284237 mean: 7.051998067354042
CD-part1-force: 0.5070754338031169
CL-part1-force: 3.929176196717213
ExecutionTime = 3670.43 s  ClockTime = 3669 s

Time = 500

U Initial residual: (0.002113613653520512 0.002469585626878125 0.02071342486780055)
U   Final residual: (0.0001230764665318647 0.0001478302568361365 0.001224471864679787)
p Initial residual: 0.001221692967976416
p   Final residual: 0.0001060671476571287
Time step continuity errors : sum local = 0.0001499266207887268
                                 global = 5.471468943035855e-07
                             cumulative = 0.0009625775797611249
nuTilda Initial residual: 0.008439433269582864
nuTilda   Final residual: 0.0005161054562957267
Bounding nuTilda>1e-16
yPlus min: 0.07863314316917816 max: 32.95639397555921 mean: 7.052849360039371
CD-part1-force: 0.5246910212468374
CL-part1-force: 3.945885626639776
ExecutionTime = 3672.48 s  ClockTime = 3671 s

Time = 600

U Initial residual: (0.002178884102824229 0.002401022408134956 0.02084101355086404)
U   Final residual: (0.0001269186921207472 0.0001440669148037359 0.001956496877312664)
p Initial residual: 0.001329598722692479
p   Final residual: 0.0001276326444647841
Time step continuity errors : sum local = 0.0001791642967828308
                                 global = 3.319322855618733e-06
                             cumulative = 0.0009658969026167437
nuTilda Initial residual: 0.008479320770587171
nuTilda   Final residual: 0.0004971135720579559
Bounding nuTilda>1e-16
yPlus min: 0.07217517232371672 max: 32.95826456199289 mean: 7.026401376373273
CD-part1-force: 0.4922103537126915
CL-part1-force: 3.897235266853806
ExecutionTime = 3674.51 s  ClockTime = 3673 s

Time = 700

U Initial residual: (0.002183195146955105 0.002449059244545144 0.02173136357687926)
U   Final residual: (0.0002149790970642202 0.0001430966684465764 0.001962638409492175)
p Initial residual: 0.001224662971873531
p   Final residual: 0.0001143529529358824
Time step continuity errors : sum local = 0.0001590356063658936
                                 global = 1.749104009478991e-06
                             cumulative = 0.0009676460066262226
nuTilda Initial residual: 0.008587070947514278
nuTilda   Final residual: 0.000508424658656216
Bounding nuTilda>1e-16
yPlus min: 0.05760751085429235 max: 32.97518955862616 mean: 7.034320989880384
CD-part1-force: 0.4792185039482253
CL-part1-force: 3.889578940885087
ExecutionTime = 3676.55 s  ClockTime = 3675 s

Time = 800

U Initial residual: (0.002103166281523215 0.002442866681769574 0.02023152053712811)
U   Final residual: (0.0001230760840137244 0.0001474831813616538 0.001970672485602422)
p Initial residual: 0.001270920958433196
p   Final residual: 0.0001243801031338733
Time step continuity errors : sum local = 0.0001744735290128321
                                 global = -1.566993254273499e-05
                             cumulative = 0.0009519760740834876
nuTilda Initial residual: 0.008331832358856943
nuTilda   Final residual: 0.0005026874775036995
Bounding nuTilda>1e-16
yPlus min: 0.02438038158407489 max: 32.97140294137081 mean: 7.05665706008326
CD-part1-force: 0.5178999861112474
CL-part1-force: 3.944146503181266
ExecutionTime = 3678.58 s  ClockTime = 3677 s

Time = 900

U Initial residual: (0.002113009107798733 0.002411913087507435 0.02131500089838296)
U   Final residual: (0.0001233182022123329 0.0001461813614774407 0.00123446734507088)
p Initial residual: 0.001180447005207322
p   Final residual: 0.0001123501106580412
Time step continuity errors : sum local = 0.0001584909940607783
                                 global = -3.590583937433901e-06
                             cumulative = 0.0009483854901460537
nuTilda Initial residual: 0.00845085729308423
nuTilda   Final residual: 0.0005166288213540692
Bounding nuTilda>1e-16
yPlus min: 0.04468881692892981 max: 32.95544858906552 mean: 7.04835032997451
CD-part1-force: 0.5140985985344608
CL-part1-force: 3.93378601950202
ExecutionTime = 3680.6 s  ClockTime = 3679 s

Time = 1000

U Initial residual: (0.002211548510036754 0.00245572187277493 0.02047327711825211)
U   Final residual: (0.0002210117051284285 0.000146528911148318 0.001896578334165937)
p Initial residual: 0.001312852827807545
p   Final residual: 0.0001221155668493012
Time step continuity errors : sum local = 0.0001703804482878766
                                 global = 8.085347591984434e-06
                             cumulative = 0.0009564708377380381
nuTilda Initial residual: 0.008496811282616704
nuTilda   Final residual: 0.0004925741911040112
Bounding nuTilda>1e-16
yPlus min: 0.07457813689542772 max: 32.96262473102136 mean: 7.027743919050832
CD-part1-force: 0.4833227412356797
CL-part1-force: 3.887003153929546
ExecutionTime = 3682.65 s  ClockTime = 3681 s

Printing Primal Residual Statistics.
U Residual Norm2: (31545.40045512786 21259.63052898393 0.8732431818892137)
U Residual Mean: (43.62320144406892 32.60589786839352 0.000918051673500309)
U Residual Max: (2422.335418832994 2410.968209906929 0.08068960537885453)
p Residual Norm2: 5205.438055837715
p Residual Mean: 1.924410122757491
p Residual Max: 2048.641816511243
nuTilda Residual Norm2: 33.60760542256811
nuTilda Residual Mean: 0.03826128472438202
nuTilda Residual Max: 2.61099151832792
phi Residual Norm2: 10.48941895170549
phi Residual Mean: 0.00544564540749599
phi Residual Max: 0.8567075856971686
End

Nonlinear constraints
None

Objectives
{'cruise.aero_post.functionals.CL': array([3.8870030064674066])}

Driver debug print for iter coord: rank0:pyOptSparse_IPOPT|37
-------------------------------------------------------------
Design Vars
{'dvs.aoa': array([0.056025381667581]),
 'dvs.shape0': array([-0.001176377925004 , -0.0011763779396289, -0.0011763779411946,
       -0.0011763779717429, -0.0000458692298611, -0.0000458692343489,
       -0.0000458692269461, -0.0000458692281116,  0.0002253495734659,
        0.0002253495666436,  0.000225349586108 ,  0.0002253495968843,
        0.0004871967055992,  0.0004871966952417,  0.0004871967248251,
        0.0004871967387041,  0.0005450570889434,  0.0005450570913402,
        0.0005450570913604,  0.000545057095893 ,  0.0005450570807938,
        0.0005450570724088,  0.0005450570854101,  0.0005450570860672,
        0.0004871967064645,  0.0004871967025354,  0.0004871967154929,
        0.0004871967160001,  0.0002253495739552,  0.0002253495730375,
        0.0002253495760233,  0.0002253495721591, -0.0000458692220444,
       -0.0000458692180329, -0.0000458692221956, -0.0000458692198556,
       -0.001176377878947 , -0.001176377846885 , -0.0011763778968789,
       -0.00117637788364  ]),
 'dvs.shape1': array([-0.0012163716569816, -0.0012163716256725, -0.0012163717180254,
       -0.0012163717476466,  0.0000080549202858,  0.0000080549191617,
        0.0000080549224245,  0.0000080549234359,  0.000337222208613 ,
        0.0003372222060123,  0.0003372222137513,  0.0003372222162869,
       -0.0007453870202457, -0.0007453870199984, -0.0007453870207664,
       -0.0007453870209992,  0.0002419814634732,  0.0002419814924686,
        0.0002419814050774,  0.0002419813757238,  0.0024811717880668,
        0.0024811717261206,  0.0024811719117084,  0.0024811719731293,
       -0.0029627325059346, -0.0029627324261804, -0.0029627326664799,
       -0.0029627327478393,  0.0008536721758071,  0.0008536722032896,
        0.0008536721212964,  0.0008536720936583,  0.0014454017643493,
        0.001445401727008 ,  0.001445401839075 ,  0.0014454018764395]),
 'dvs.translate1': array([ 0.0058743256318   , -0.0026441239429785]),
 'dvs.twist1': array([0.006598436645572])}

TRYING AOA = [0.056025381667581]
TRYING AOA = [0.056025381667581]
TRYING AOA = [0.056025381667581]
TRYING AOA = [0.056025381667581]
TRYING AOA = [0.056025381667581]
TRYING AOA = [0.056025381667581]
TRYING AOA = [0.056025381667581]
TRYING AOA = [0.056025381667581]
TRYING AOA = [0.056025381667581]
TRYING AOA = [0.056025381667581]
TRYING AOA = [0.056025381667581]
TRYING AOA = [0.056025381667581]
Setting up primal boundary conditions based on pyOptions: 
Setting primal boundary conditions...
Setting U = (9.999995219268506 0.009778272189614173 0) at inout
Setting primal boundary conditions...
Setting p = 0 at inout
Setting primal boundary conditions...
Setting nuTilda = 4.5e-05 at inout
Setting nut wall BC for profile0. BCType=nutUSpaldingWallFunction
Setting nut wall BC for profile1. BCType=nutUSpaldingWallFunction
Running Primal Solver 038
Previous solution time 1000 found and deleted.
No finite volume options present

Starting time loop

Checking mesh quality for time = 0
    Overall domain bounding box (-10.00052994080514 -10.94667913768316 -4.703483726511046e-09) (11.73700756265448 10.34975232695651 0.1000000040612037)
    Mesh has 3 geometric (non-empty/wedge) directions 3{1}
    Mesh has 3 solution (non-empty) directions 3{1}
    Boundary openness (2.827975986877867e-19 5.400178771425698e-19 6.258589644581678e-16) OK.
    Max cell openness = 4.87779387201461e-16 OK.
    Max aspect ratio = 2169.259163126757 OK.
    Minimum face area = 2.802177156980477e-08. Maximum face area = 1.183336432991422.  Face area magnitudes OK.
    Min volume = 2.80217715772487e-09. Max volume = 0.1183336448946893.  Total volume = 46.26268678655482.  Cell volumes OK.
    Mesh non-orthogonality Max: 42.18496323950983 average: 4.502337534498132
    Non-orthogonality check OK.
    Face pyramids OK.
    Max skewness = 1.431037585529682 OK.
    Coupled point location match (average 0) OK.

Mesh OK.

Time = 1

U Initial residual: (0.002200411945515522 0.002426635674587007 0.02075590785507846)
U   Final residual: (0.0001275669528115343 0.000144862800291822 0.00193962238802962)
p Initial residual: 0.001335967656154112
p   Final residual: 0.0001317316247367572
Time step continuity errors : sum local = 0.0001843202793613628
                                 global = 9.910985443544677e-06
                             cumulative = 0.0009663818231815828
nuTilda Initial residual: 0.008488917704746175
nuTilda   Final residual: 0.0004943382033812532
Bounding nuTilda>1e-16
yPlus min: 0.01132654878346457 max: 32.96070022840546 mean: 7.030252423881746
CD-part1-force: 0.487077905617793
CL-part1-force: 3.891773644022502
ExecutionTime = 3683.32 s  ClockTime = 3682 s

Time = 100

U Initial residual: (0.002149105846455093 0.002414879011241153 0.02158003105483564)
U   Final residual: (0.0002131393507035913 0.0001423351212985302 0.001998195421163462)
p Initial residual: 0.001155967129888297
p   Final residual: 0.0001133329221293011
Time step continuity errors : sum local = 0.0001575466183085548
                                 global = -4.006865028909146e-06
                             cumulative = 0.0009623749581526736
nuTilda Initial residual: 0.008557302769587809
nuTilda   Final residual: 0.0005105773017302632
Bounding nuTilda>1e-16
yPlus min: 0.06577982903933742 max: 32.97599084945545 mean: 7.038275541163194
CD-part1-force: 0.4871048741944461
CL-part1-force: 3.899250754653264
ExecutionTime = 3685.36 s  ClockTime = 3684 s

Time = 200

U Initial residual: (0.002101771513833714 0.002473112264205305 0.02025467464174372)
U   Final residual: (0.0001228886124914574 0.0001463947925240042 0.001179952571721231)
p Initial residual: 0.001225596287340245
p   Final residual: 0.0001170671377538662
Time step continuity errors : sum local = 0.0001645052199159541
                                 global = -1.346982904422195e-05
                             cumulative = 0.0009489051291084517
nuTilda Initial residual: 0.008337698144252295
nuTilda   Final residual: 0.0005049647949244146
Bounding nuTilda>1e-16
yPlus min: 0.01878971559809599 max: 32.9669417156767 mean: 7.057959921753799
CD-part1-force: 0.5224089102693702
CL-part1-force: 3.949378318480375
ExecutionTime = 3687.43 s  ClockTime = 3686 s

Time = 300

U Initial residual: (0.002123076821821504 0.00236783301179186 0.02193278788769337)
U   Final residual: (0.0001241151312041504 0.0001437657898925719 0.002129612589736156)
p Initial residual: 0.001207300208808757
p   Final residual: 7.625022249967344e-05
Time step continuity errors : sum local = 0.0001075569666236535
                                 global = 3.568528717514078e-06
                             cumulative = 0.0009524736578259658
nuTilda Initial residual: 0.008461021895946547
nuTilda   Final residual: 0.0005150703321942512
Bounding nuTilda>1e-16
yPlus min: 0.0534871732882531 max: 32.95443561061574 mean: 7.042842648765094
CD-part1-force: 0.5123695511659481
CL-part1-force: 3.930286686515868
ExecutionTime = 3689.5 s  ClockTime = 3688 s

Time = 400

U Initial residual: (0.002205231464851634 0.00248171938065917 0.02060976854014812)
U   Final residual: (0.0002182252464933751 0.0001478883876903353 0.001878817094959344)
p Initial residual: 0.001305593124824335
p   Final residual: 0.0001230723731801057
Time step continuity errors : sum local = 0.0001713260759906788
                                 global = 1.403393721350493e-05
                             cumulative = 0.0009665075950394707
nuTilda Initial residual: 0.008539160166484257
nuTilda   Final residual: 0.0004930552795764323
Bounding nuTilda>1e-16
yPlus min: 0.06255977850222709 max: 32.96563485307907 mean: 7.030346799934977
CD-part1-force: 0.4773007238981501
CL-part1-force: 3.883477545111633
ExecutionTime = 3691.55 s  ClockTime = 3690 s

Time = 500

U Initial residual: (0.002114086917102945 0.002389583228217334 0.0212593516593883)
U   Final residual: (0.0001217313484563706 0.000142449209798327 0.001992377944983153)
p Initial residual: 0.001185186644069513
p   Final residual: 7.259689861115202e-05
Time step continuity errors : sum local = 0.0001010162570581771
                                 global = -2.420536088102181e-07
                             cumulative = 0.0009662655414306605
nuTilda Initial residual: 0.008526223138065305
nuTilda   Final residual: 0.0005146203436920649
Bounding nuTilda>1e-16
yPlus min: 0.05539424187977933 max: 32.97697542235864 mean: 7.049647289488464
CD-part1-force: 0.4938783057479681
CL-part1-force: 3.909021142727259
ExecutionTime = 3693.6 s  ClockTime = 3692 s

Time = 600

U Initial residual: (0.002096340562947615 0.002482218078133723 0.02002743051128008)
U   Final residual: (0.0001223470175004568 0.0001452715565401349 0.001224816301337598)
p Initial residual: 0.001244646880711746
p   Final residual: 0.0001207879966195904
Time step continuity errors : sum local = 0.0001709399814046068
                                 global = -1.104232746145311e-05
                             cumulative = 0.0009552232139692074
nuTilda Initial residual: 0.008383180961678066
nuTilda   Final residual: 0.0005130103166796245
Bounding nuTilda>1e-16
yPlus min: 0.06938979460237067 max: 32.96454698958776 mean: 7.064298949625155
CD-part1-force: 0.5267058639949072
CL-part1-force: 3.953489163161361
ExecutionTime = 3695.64 s  ClockTime = 3694 s

Time = 700

U Initial residual: (0.002147175908065846 0.002366948721831522 0.02201757464772984)
U   Final residual: (0.000125354726283393 0.0001431413137926526 0.002095410079070977)
p Initial residual: 0.001218734236152205
p   Final residual: 0.0001120404724014975
Time step continuity errors : sum local = 0.0001580060912276518
                                 global = -3.443320313521984e-07
                             cumulative = 0.0009548788819378553
nuTilda Initial residual: 0.008477389698932442
nuTilda   Final residual: 0.0005113306784656247
Bounding nuTilda>1e-16
yPlus min: 0.02561318870116631 max: 32.95676207579786 mean: 7.038550284097541
CD-part1-force: 0.5037639833978442
CL-part1-force: 3.919043207794499
ExecutionTime = 3697.7 s  ClockTime = 3696 s

Time = 800

U Initial residual: (0.002198875706564699 0.002506171070695146 0.02123953273639165)
U   Final residual: (0.0002163567743847889 0.0001479734135940677 0.001914400936891103)
p Initial residual: 0.001271590219792679
p   Final residual: 0.0001195813506761402
Time step continuity errors : sum local = 0.0001662032338242316
                                 global = 9.960558794285532e-06
                             cumulative = 0.0009648394407321408
nuTilda Initial residual: 0.008585106598584569
nuTilda   Final residual: 0.0004981057036133185
Bounding nuTilda>1e-16
yPlus min: 0.02642118895932423 max: 32.97140846744214 mean: 7.028558155713886
CD-part1-force: 0.4749765754080988
CL-part1-force: 3.882917292716475
ExecutionTime = 3699.75 s  ClockTime = 3698 s

Time = 900

U Initial residual: (0.002103226360548504 0.002369915739781506 0.02076403329409675)
U   Final residual: (0.0001220834473241052 0.0001437871053604771 0.001962703139628765)
p Initial residual: 0.001195459090226971
p   Final residual: 7.00404038560236e-05
Time step continuity errors : sum local = 9.748180088209121e-05
                                 global = -1.055943664131106e-07
                             cumulative = 0.0009647338463657277
nuTilda Initial residual: 0.008451521923776684
nuTilda   Final residual: 0.0005178472174324162
Bounding nuTilda>1e-16
yPlus min: 0.06184527126077272 max: 32.97768937829107 mean: 7.053724740205325
CD-part1-force: 0.5018968696171495
CL-part1-force: 3.922076712993043
ExecutionTime = 3701.81 s  ClockTime = 3701 s

Time = 1000

U Initial residual: (0.002092644264314621 0.002461009439963414 0.02040139609799587)
U   Final residual: (0.0001218654221284452 0.0001452904384829645 0.001235610117232061)
p Initial residual: 0.001241264234608599
p   Final residual: 6.604950499397776e-05
Time step continuity errors : sum local = 9.368145130005596e-05
                                 global = -1.208500511495542e-06
                             cumulative = 0.0009635253458542321
nuTilda Initial residual: 0.008417227115587463
nuTilda   Final residual: 0.0005156345075213724
Bounding nuTilda>1e-16
yPlus min: 0.07559837798855883 max: 32.96215417383528 mean: 7.062851717838173
CD-part1-force: 0.5269376461924059
CL-part1-force: 3.952811647976457
ExecutionTime = 3703.86 s  ClockTime = 3703 s

Printing Primal Residual Statistics.
U Residual Norm2: (32442.1563411047 23416.90736876877 0.9126243530705724)
U Residual Mean: (43.44212552466496 34.63858058469685 0.0009032508013577774)
U Residual Max: (4919.035557970604 3697.462359632558 0.09932938050132056)
p Residual Norm2: 5575.415468035599
p Residual Mean: 2.234534533520591
p Residual Max: 1447.50577337032
nuTilda Residual Norm2: 32.50994951144635
nuTilda Residual Mean: 0.03794967332902075
nuTilda Residual Max: 2.386174876024533
phi Residual Norm2: 10.42790814739706
phi Residual Mean: 0.005294582601910597
phi Residual Max: 0.9001995464843766
End

Nonlinear constraints
None

Objectives
{'cruise.aero_post.functionals.CL': array([3.9528114936552803])}

TRYING AOA = [0.056025381667581]
TRYING AOA = [0.056025381667581]
TRYING AOA = [0.056025381667581]
TRYING AOA = [0.056025381667581]
TRYING AOA = [0.056025381667581]
TRYING AOA = [0.056025381667581]
TRYING AOA = [0.056025381667581]
TRYING AOA = [0.056025381667581]
TRYING AOA = [0.056025381667581]
TRYING AOA = [0.056025381667581]
TRYING AOA = [0.056025381667581]
TRYING AOA = [0.056025381667581]
Computing partials for  ['CL']
Calculating dFdW using reverse-mode AD
Calculating dFdXv using reverse-mode AD
Moving time 1000 to 0.0007
Driver total derivatives for iteration: 7
---------------------------------------------
Calculating [dRdW]^T * Psi using reverse-mode AD
Solving Linear Equation... 3706 s
Main iteration 0 KSP Residual norm 6.530967467900e-02 3706 s
Main iteration 100 KSP Residual norm 5.400111648437e-02 3729 s
Main iteration 200 KSP Residual norm 5.355213865269e-02 3756 s
Main iteration 300 KSP Residual norm 5.318781051025e-02 3785 s
Main iteration 400 KSP Residual norm 5.299620947397e-02 3816 s
Main iteration 500 KSP Residual norm 5.072635792691e-02 3850 s
Main iteration 600 KSP Residual norm 4.457073197147e-02 3886 s
