--------------------------------------------------------------------------
[[14003,1],0]: A high-performance Open MPI point-to-point messaging module
was unable to find any relevant network interfaces:

Module: OpenFabrics (openib)
  Host: e32f9587393c

Another transport will be used instead, although this may result in
lower performance.

NOTE: You can disable this warning by setting the MCA parameter
btl_base_warn_component_unused to 0.
--------------------------------------------------------------------------
 
-------------------------------------------------------------------------------
|                               DAFoam v3.1.2                                 |
-------------------------------------------------------------------------------
 
/*---------------------------------------------------------------------------*\
| =========                 |                                                 |
| \\      /  F ield         | OpenFOAM: The Open Source CFD Toolbox           |
|  \\    /   O peration     | Version:  v1812                                 |
|   \\  /    A nd           | Web:      www.OpenFOAM.com                      |
|    \\/     M anipulation  |                                                 |
\*---------------------------------------------------------------------------*/
Build  : v1812 OPENFOAM=1812
Arch   : "LSB;label=32;scalar=64"
Exec   : decomposePar
Date   : Nov 18 2024
Time   : 11:22:23
Host   : e32f9587393c
PID    : 11507
I/O    : uncollated
Case   : /home/dafoamuser/mount
nProcs : 1
trapFpe: Floating point exception trapping enabled (FOAM_SIGFPE).
fileModificationChecking : Monitoring run-time modified files using timeStampMaster (fileModificationSkew 10)
allowSystemOperations : Allowing user-supplied system call operations

// * * * * * * * * * * * * * * * * * * * * * * * * * * * * * * * * * * * * * //
Create time

Overriding DebugSwitches according to controlDict
    SolverPerformance 0;



Decomposing mesh region0

Create mesh

Calculating distribution of cells
Selecting decompositionMethod scotch [10]

Finished decomposition in 0.03 s

Calculating original mesh data

Distributing cells to processors

Distributing faces to processors

Distributing points to processors

Constructing processor meshes
Overriding DebugSwitches according to controlDict
    SolverPerformance 0;


Processor 0
    Number of cells = 1128
    Number of faces shared with processor 1 = 48
    Number of faces shared with processor 2 = 2
    Number of faces shared with processor 4 = 24
    Number of faces shared with processor 5 = 17
    Number of processor patches = 4
    Number of processor faces = 91
    Number of boundary faces = 2290
Overriding DebugSwitches according to controlDict
    SolverPerformance 0;


Processor 1
    Number of cells = 1129
    Number of faces shared with processor 0 = 48
    Number of faces shared with processor 2 = 2
    Number of faces shared with processor 3 = 29
    Number of processor patches = 3
    Number of processor faces = 79
    Number of boundary faces = 2313
Overriding DebugSwitches according to controlDict
    SolverPerformance 0;


Processor 2
    Number of cells = 1116
    Number of faces shared with processor 0 = 2
    Number of faces shared with processor 1 = 2
    Number of faces shared with processor 3 = 27
    Number of faces shared with processor 5 = 2
    Number of faces shared with processor 7 = 25
    Number of processor patches = 5
    Number of processor faces = 58
    Number of boundary faces = 2305
Overriding DebugSwitches according to controlDict
    SolverPerformance 0;


Processor 3
    Number of cells = 1124
    Number of faces shared with processor 1 = 29
    Number of faces shared with processor 2 = 27
    Number of faces shared with processor 4 = 42
    Number of processor patches = 3
    Number of processor faces = 98
    Number of boundary faces = 2324
Overriding DebugSwitches according to controlDict
    SolverPerformance 0;


Processor 4
    Number of cells = 1130
    Number of faces shared with processor 0 = 24
    Number of faces shared with processor 3 = 42
    Number of faces shared with processor 5 = 2
    Number of faces shared with processor 6 = 25
    Number of processor patches = 4
    Number of processor faces = 93
    Number of boundary faces = 2327
Overriding DebugSwitches according to controlDict
    SolverPerformance 0;


Processor 5
    Number of cells = 1131
    Number of faces shared with processor 0 = 17
    Number of faces shared with processor 2 = 2
    Number of faces shared with processor 4 = 2
    Number of faces shared with processor 6 = 30
    Number of faces shared with processor 7 = 13
    Number of faces shared with processor 8 = 28
    Number of faces shared with processor 9 = 7
    Number of processor patches = 7
    Number of processor faces = 99
    Number of boundary faces = 2392
Overriding DebugSwitches according to controlDict
    SolverPerformance 0;


Processor 6
    Number of cells = 1122
    Number of faces shared with processor 4 = 25
    Number of faces shared with processor 5 = 30
    Number of faces shared with processor 8 = 9
    Number of processor patches = 3
    Number of processor faces = 64
    Number of boundary faces = 2310
Overriding DebugSwitches according to controlDict
    SolverPerformance 0;


Processor 7
    Number of cells = 1113
    Number of faces shared with processor 2 = 25
    Number of faces shared with processor 5 = 13
    Number of faces shared with processor 9 = 28
    Number of processor patches = 3
    Number of processor faces = 66
    Number of boundary faces = 2299
Overriding DebugSwitches according to controlDict
    SolverPerformance 0;


Processor 8
    Number of cells = 1129
    Number of faces shared with processor 5 = 28
    Number of faces shared with processor 6 = 9
    Number of faces shared with processor 9 = 27
    Number of processor patches = 3
    Number of processor faces = 64
    Number of boundary faces = 2325
Overriding DebugSwitches according to controlDict
    SolverPerformance 0;


Processor 9
    Number of cells = 1119
    Number of faces shared with processor 5 = 7
    Number of faces shared with processor 7 = 28
    Number of faces shared with processor 8 = 27
    Number of processor patches = 3
    Number of processor faces = 62
    Number of boundary faces = 2299

Number of processor faces = 387
Max number of cells = 1131 (0.6138243928476196% above average 1124.1)
Max number of processor patches = 7 (84.21052631578948% above average 3.8)
Max number of faces between processors = 99 (27.90697674418604% above average 77.40000000000001)

Time = 0

Processor 0: field transfer
Overriding DebugSwitches according to controlDict
    SolverPerformance 0;

Processor 1: field transfer
Overriding DebugSwitches according to controlDict
    SolverPerformance 0;

Processor 2: field transfer
Overriding DebugSwitches according to controlDict
    SolverPerformance 0;

Processor 3: field transfer
Overriding DebugSwitches according to controlDict
    SolverPerformance 0;

Processor 4: field transfer
Overriding DebugSwitches according to controlDict
    SolverPerformance 0;

Processor 5: field transfer
Overriding DebugSwitches according to controlDict
    SolverPerformance 0;

Processor 6: field transfer
Overriding DebugSwitches according to controlDict
    SolverPerformance 0;

Processor 7: field transfer
Overriding DebugSwitches according to controlDict
    SolverPerformance 0;

Processor 8: field transfer
Overriding DebugSwitches according to controlDict
    SolverPerformance 0;

Processor 9: field transfer
Overriding DebugSwitches according to controlDict
    SolverPerformance 0;


End

I/O    : uncollated
Case   : /home/dafoamuser/mount
nProcs : 10
Hosts  :
(
    (e32f9587393c 10)
)
Pstream initialized with:
    floatTransfer      : 0
    nProcsSimpleSum    : 0
    commsType          : nonBlocking
    polling iterations : 0
Create time

Overriding DebugSwitches according to controlDict
    SolverPerformance 0;

Create mesh for time = 0
Initializing mesh and runtime for DASolver
DAOpton initialized 
I/O    : uncollated
Case   : /home/dafoamuser/mount
nProcs : 10
Hosts  :
(
    (e32f9587393c 10)
)
Pstream initialized with:
    floatTransfer      : 0
    nProcsSimpleSum    : 0
    commsType          : nonBlocking
    polling iterations : 0
Create time

Overriding DebugSwitches according to controlDict
    SolverPerformance 0;

Create mesh for time = 0
Initializing mesh and runtime for DASolver
DAOpton initialized 
Initializing fields for DASimpleFoam
Create simpleControl.

SIMPLE: no convergence criteria found. Calculations will run for 1000 steps.

Reading field p

Reading field U

Reading/calculating face flux field phi

Creating source term. 
Selecting incompressible transport model Newtonian
Selecting turbulence model type RAS
Selecting RAS turbulence model SpalartAllmaras
Selecting patchDistMethod meshWaveFrozen
No MRF models present

Adjoint States: 
4
(
U volVectorState
nuTilda modelState
phi surfaceScalarState
p volScalarState
)
Global Cells: 11241
Global Faces: 46095
Global Xv: 74292
Undecomposed points: 23966
Global Adjoint States: 102300

SIMPLE: no convergence criteria found. Calculations will run for 1000 steps.

initState: 
6
(
nuTilda 4.5e-05
phi 0.7722008500240041
U1 0
U2 0
p 0
U0 10
)
DACheckMesh Thresholds: 
maxNonOrth: 75
maxSkewness: 8
maxAspectRatio: 5000
maxIncorrectlyOrientedFaces: 0
    Adding all faces of patches 1(wing) ...
    Found matching patch wing with 34 faces.
    Adding all faces of patches 1(wing) ...
    Found matching patch wing with 34 faces.
Initializing fields for DASimpleFoam
Create simpleControl.

SIMPLE: no convergence criteria found. Calculations will run for 1000 steps.

Reading field p

Reading field U

Reading/calculating face flux field phi

Creating source term. 
Selecting incompressible transport model Newtonian
Selecting turbulence model type RAS
Selecting RAS turbulence model SpalartAllmaras
Selecting patchDistMethod meshWaveFrozen
No MRF models present

Adjoint States: 
4
(
U volVectorState
nuTilda modelState
phi surfaceScalarState
p volScalarState
)
Global Cells: 11241
Global Faces: 46095
Global Xv: 74292
Undecomposed points: 23966
Global Adjoint States: 102300

SIMPLE: no convergence criteria found. Calculations will run for 1000 steps.

initState: 
6
(
nuTilda 4.5e-05
phi 0.7722008500240041
U1 0
U2 0
p 0
U0 10
)
DACheckMesh Thresholds: 
maxNonOrth: 75
maxSkewness: 8
maxAspectRatio: 5000
maxIncorrectlyOrientedFaces: 0
    Adding all faces of patches 1(wing) ...
    Found matching patch wing with 34 faces.
    Adding all faces of patches 1(wing) ...
    Found matching patch wing with 34 faces.
DAFoam option dictionary: 
{
    solverName      DASimpleFoam;
    primalMinResTol 0.01;
    primalObjStdTol
    {
        active          0;
        objFuncName     None;
        steps           200;
        tol             1e-05;
        tolDiff         100;
    }
    primalBC
    {
        U0
        {
            variable        U;
            patches         1 ( inout );
            value           3 ( 10 0 0 );
        }
        p0
        {
            variable        p;
            patches         1 ( inout );
            value           1 ( 0 );
        }
        nuTilda0
        {
            variable        nuTilda;
            patches         1 ( inout );
            value           1 ( 4.5e-05 );
        }
        useWallFunction 1;
    }
    normalizeStates
    {
        U               10;
        p               50;
        nuTilda         0.00045;
        phi             1;
    }
    objFunc
    {
        CD
        {
            part1
            {
                type            force;
                source          patchToFace;
                patches         1 ( wing );
                directionMode   parallelToFlow;
                alphaName       aoa;
                scale           0.01;
                addToAdjoint    1;
            }
        }
        CL
        {
            part1
            {
                type            force;
                source          patchToFace;
                patches         1 ( wing );
                directionMode   normalToFlow;
                alphaName       aoa;
                scale           0.01;
                addToAdjoint    1;
            }
        }
    }
    designVar
    {
        aoa
        {
            designVarType   AOA;
            patches         1 ( inout );
            flowAxis        x;
            normalAxis      y;
        }
        shape
        {
            designVarType   FFD;
        }
    }
    designSurfaces  1 ( wing );
    couplingInfo
    {
        aerostructural
        {
            active          0;
            pRef            0;
            propMovement    0;
            couplingSurfaceGroups
            {
                wingGroup       2 ( wing wing_te );
            }
        }
        aerothermal
        {
            active          0;
            couplingSurfaceGroups
            {
                wallGroup       1 ( fin_wall );
            }
        }
        aeroacoustic
        {
            active          0;
            pRef            0;
            couplingSurfaceGroups
            {
                blade1Group     2 ( blade1_ps blade1_ss );
                blade2Group     1 ( blade2 );
            }
        }
    }
    aeroPropulsive
    {
    }
    primalOnly      0;
    fvSource
    {
    }
    adjEqnSolMethod Krylov;
    primalVarBounds
    {
        UMax            1000;
        UMin            -1000;
        pMax            50000;
        pMin            -50000;
        p_rghMax        50000;
        p_rghMin        -50000;
        eMax            500000;
        eMin            100000;
        TMax            1000;
        TMin            100;
        hMax            500000;
        hMin            100000;
        DMax            1e+16;
        DMin            -1e+16;
        rhoMax          5;
        rhoMin          0.2;
        nuTildaMax      1e+16;
        nuTildaMin      1e-16;
        kMax            1e+16;
        kMin            1e-16;
        omegaMax        1e+16;
        omegaMin        1e-16;
        epsilonMax      1e+16;
        epsilonMin      1e-16;
        ReThetatMax     1e+16;
        ReThetatMin     1e-16;
        gammaIntMax     1e+16;
        gammaIntMin     1e-16;
    }
    discipline      aero;
    multiPoint      0;
    nMultiPoints    1;
    adjPartDerivFDStep
    {
        State           1e-06;
        FFD             0.001;
        BC              0.01;
        AOA             0.001;
        ACTP            0.01;
        ACTD            0.01;
        ACTL            0.01;
    }
    transonicPCOption -1;
    unsteadyAdjoint
    {
        mode            None;
        nTimeInstances  -1;
        periodicity     -1;
        objFuncStartTime -1;
        objFuncEndTime  -1;
        objFuncTimeOperator None;
        PCMatPrecomputeInterval 100;
        PCMatUpdateInterval 1;
        reduceIO        1;
        additionalOutput 1 ( None );
        readZeroFields  1;
    }
    objFuncAvgStart 1;
    adjPCLag        10000;
    useAD
    {
        mode            reverse;
        dvName          None;
        seedIndex       -9999;
    }
    rigidBodyMotion
    {
        mode            dummy;
    }
    hasIterativeBC  0;
    useConstrainHbyA 0;
    regressionModel
    {
        active          0;
    }
    useMeanStates
    {
        active          0;
        start           0.5;
    }
    runStatus       None;
    printPYDAFOAMOptions 0;
    printDAOptions  1;
    debug           0;
    writeJacobians  1 ( None );
    printInterval   100;
    printIntervalUnsteady 500;
    primalMinResTolDiff 100;
    adjUseColoring  1;
    adjEqnOption
    {
        globalPCIters   0;
        asmOverlap      1;
        localPCIters    1;
        jacMatReOrdering rcm;
        pcFillLevel     1;
        gmresMaxIters   1000;
        gmresRestart    1000;
        gmresRelTol     1e-06;
        gmresAbsTol     1e-14;
        gmresTolDiff    100;
        useNonZeroInitGuess 0;
        useMGSO         0;
        printInfo       1;
        fpMaxIters      1000;
        fpRelTol        1e-06;
        fpMinResTolDiff 100;
        fpPCUpwind      0;
        dynAdjustTol    1;
    }
    normalizeResiduals 10 ( URes pRes p_rghRes nuTildaRes phiRes TRes DRes kRes omegaRes epsilonRes );
    maxResConLv4JacPCMat
    {
        pRes            2;
        phiRes          1;
        URes            2;
        TRes            2;
        nuTildaRes      2;
        kRes            2;
        epsilonRes      2;
        omegaRes        2;
        p_rghRes        2;
        DRes            2;
        gammaIntRes     2;
        ReThetatRes     2;
    }
    jacLowerBounds
    {
        dRdW            1e-30;
        dRdWPC          1e-30;
    }
    maxTractionBCIters 100;
    decomposeParDict
    {
        method          scotch;
        simpleCoeffs
        {
            n               3 ( 2 2 1 );
            delta           0.001;
        }
        preservePatches 1 ( None );
        singleProcessorFaceSets 1 ( None );
    }
    adjStateOrdering state;
    meshSurfaceFamily None;
    checkMeshThreshold
    {
        maxAspectRatio  5000;
        maxNonOrth      75;
        maxSkewness     8;
        maxIncorrectlyOrientedFaces 0;
    }
    writeSensMap    1 ( NONE );
    writeDeformedFFDs 0;
    writeDeformedConstraints 0;
    maxCorrectBCCalls 10;
    writeMinorIterations 0;
    runLowOrderPrimal4PC
    {
        active          0;
    }
    wingProp
    {
        test_propeller_default
        {
            active          0;
            nForceSections  10;
            axis            3 ( 1 0 0 );
            rotationCenter  3 { 0 };
            actEps          0.02;
            rotDir          right;
            interpScheme    Poly4Gauss;
            bladeName       blade;
        }
    }
    primalMinIters  1;
    tensorflow
    {
        active          0;
        modelName       model;
        nInputs         1;
        nOutputs        1;
        batchSize       1000;
    }
}

Init solver done! ElapsedClockTime 0.000000 s
Init solver done!. ElapsedCpuTime 0.240000 s
Reading OpenFOAM mesh information...
I/O    : uncollated
Case   : /home/dafoamuser/mount
nProcs : 10
Hosts  :
(
    (e32f9587393c 10)
)
Pstream initialized with:
    floatTransfer      : 0
    nProcsSimpleSum    : 0
    commsType          : nonBlocking
    polling iterations : 0
Reading the OpenFOAM mesh..
Overriding DebugSwitches according to controlDict
    SolverPerformance 0;

Finalising parallel run
Checking if we need to compress the mesh files
Checking if we need to compress the mesh files
I/O    : uncollated
pyDAFoam initialization done!
+----------------------------------------+
|          All IDWarp Options:           |
+----------------------------------------+
{'LdefFact': 1.0,
 'aExp': 3.0,
 'alpha': 0.25,
 'bExp': 5.0,
 'bucketSize': 8,
 'cornerAngle': 30.0,
 'errTol': 0.0005,
 'evalMode': 'fast',
 'fileType': 'OpenFOAM',
 'gridFile': '/home/dafoamuser/mount',
 'restartFile': None,
 'specifiedSurfaces': None,
 'symmTol': 1e-06,
 'symmetryPlanes': [[[0.0, 0.0, 0.0], [0.0, 0.0, 1.0]],
                    [[0.0, 0.0, 0.1], [0.0, 0.0, 1.0]]],
 'symmetrySurfaces': None,
 'useRotations': True,
 'zeroCornerRotations': True}
I/O    : uncollated
Case   : /home/dafoamuser/mount
nProcs : 10
Hosts  :
(
    (e32f9587393c 10)
)
Pstream initialized with:
    floatTransfer      : 0
    nProcsSimpleSum    : 0
    commsType          : nonBlocking
    polling iterations : 0
Reading the OpenFOAM mesh..
Overriding DebugSwitches according to controlDict
    SolverPerformance 0;

Finalising parallel run
Checking if we need to compress the mesh files
Checking if we need to compress the mesh files
#------------------------------#
 Total Volume Nodes :     24764 
#------------------------------#
I/O    : uncollated
+-------------------- Symmetry Planes -------------------+
|           Point                        Normal          |
| (  0.000   0.000   0.000)    (  0.000   0.000   1.000) |
| (  0.000   0.000   0.100)    (  0.000   0.000   1.000) |
+--------------------------------------------------------+
#--------------------------------#
 Unique Surface Nodes :      1228 
#--------------------------------#
 Computing Denomenator Estimate...
 Load Balancing...
 Finished Mesh Initialization.
OrderedDict([('inout', [0]), ('procBoundary0to1', [1]), ('procBoundary0to2', [2]), ('procBoundary0to4', [3]), ('procBoundary0to5', [4]), ('symmetry1', [5]), ('symmetry2', [6]), ('wing', [7]), ('allSurfaces', [0, 1, 2, 3, 4, 5, 6, 7]), ('allWalls', [7]), ('designSurfaces', [7])])
dRdWT Jacobian Free created!
Finding a feasible design using the Newton method. 
Constraints:  ['cruise.aero_post.CL']
Design Vars:  ['aoa']
Target:  [1.5]
Setting up primal boundary conditions based on pyOptions: 
Setting primal boundary conditions...
Setting U = (9.84807753012208 1.736481776669303 0) at inout
Setting primal boundary conditions...
Setting p = 0 at inout
Setting primal boundary conditions...
Setting nuTilda = 4.5e-05 at inout
Setting nut wall BC for wing. BCType=nutUSpaldingWallFunction
Running Primal Solver 001
Previous solution time -1e+10 not found and nothing deleted.
No finite volume options present

Starting time loop

Checking mesh quality for time = 0
    Overall domain bounding box (-10.50030040740969 -10.1806001663208 0) (11.48330020904541 10.07929992675781 1)
    Mesh has 3 geometric (non-empty/wedge) directions 3{1}
    Mesh has 3 solution (non-empty) directions 3{1}
    Boundary openness (-4.656552971584797e-18 -3.4049361324016e-18 -5.638657976430435e-17) OK.
    Max cell openness = 2.641590909001111e-16 OK.
    Max aspect ratio = 4693.812948398494 OK.
    Minimum face area = 5.172558033806878e-07. Maximum face area = 1.111273686869279.  Face area magnitudes OK.
    Min volume = 5.172558033807119e-07. Max volume = 1.096460301865651.  Total volume = 445.2614370986274.  Cell volumes OK.
    Mesh non-orthogonality Max: 50.0489622255358 average: 5.064030982072487
    Non-orthogonality check OK.
    Face pyramids OK.
    Max skewness = 1.836065919227569 OK.
    Coupled point location match (average 0) OK.

Mesh OK.

Time = 1

U Initial residual: (0.9999999999998367 1 0.9990587639784653)
U   Final residual: (0.07052513174278478 0.06916158869347917 0.08061068000188941)
p Initial residual: 1
p   Final residual: 0.05346317319740692
Time step continuity errors : sum local = 0.001535058609108665
                                 global = 1.880525060106468e-05
                             cumulative = 1.880525060106468e-05
nuTilda Initial residual: 0.9999999999985768
nuTilda   Final residual: 0.08349924041308186
Bounding nuTilda>1e-16
yPlus min: 9.118769251575715 max: 31.35993339818398 mean: 19.71369628243414
CD-part1-force: 1.537714905974262
CL-part1-force: -0.02094092952323301
ExecutionTime = 4.46 s  ClockTime = 1 s

Time = 52
Minimal residual 0.009787010734181804 satisfied the prescribed tolerance 0.01

CD-part1-force: 0.1463328121110259
CL-part1-force: 1.496383348501189
Printing Primal Residual Statistics.
U Residual Norm2: (13312.70829135302 8111.225421126993 2.960049515895699e-11)
U Residual Mean: (58.9422846628137 28.62634475284291 1.168531355262339e-13)
U Residual Max: (1749.631231066731 1183.717555574194 3.108471836752565e-12)
p Residual Norm2: 2395.429811879812
p Residual Mean: 5.838088630295637
p Residual Max: 644.0386996294455
nuTilda Residual Norm2: 4.766997724936789
nuTilda Residual Mean: 0.009607627809889578
nuTilda Residual Max: 0.6707317647148248
phi Residual Norm2: 9.656447665148683
phi Residual Mean: 0.01373291342482109
phi Residual Max: 2.280113029441061
End

FindFeasibleDesign Iter:  0
DesignVars:  [10.]
Constraints:  [1.496383362617952]
Residual Norm:  0.0024110915880320625
Setting up primal boundary conditions based on pyOptions: 
Setting primal boundary conditions...
Setting U = (9.84804722129773 1.736653657782705 0) at inout
Setting primal boundary conditions...
Setting p = 0 at inout
Setting primal boundary conditions...
Setting nuTilda = 4.5e-05 at inout
Setting nut wall BC for wing. BCType=nutUSpaldingWallFunction
Running Primal Solver 002
Previous solution time 52 found and deleted.
No finite volume options present

Starting time loop

Checking mesh quality for time = 0
    Overall domain bounding box (-10.50030040740969 -10.1806001663208 0) (11.48330020904541 10.07929992675781 1)
    Mesh has 3 geometric (non-empty/wedge) directions 3{1}
    Mesh has 3 solution (non-empty) directions 3{1}
    Boundary openness (-4.656552971584797e-18 -3.4049361324016e-18 -5.638657976430435e-17) OK.
    Max cell openness = 2.641590909001111e-16 OK.
    Max aspect ratio = 4693.812948398494 OK.
    Minimum face area = 5.172558033806878e-07. Maximum face area = 1.111273686869279.  Face area magnitudes OK.
    Min volume = 5.172558033807119e-07. Max volume = 1.096460301865651.  Total volume = 445.2614370986274.  Cell volumes OK.
    Mesh non-orthogonality Max: 50.0489622255358 average: 5.064030982072487
    Non-orthogonality check OK.
    Face pyramids OK.
    Max skewness = 1.836065919227569 OK.
    Coupled point location match (average 0) OK.

Mesh OK.

Time = 1

U Initial residual: (0.003327453268858113 0.00314538775538671 0.004071225969821707)
U   Final residual: (0.0002602165791806088 0.0002400277355826512 0.0002779706444671145)
p Initial residual: 0.009289521225421234
p   Final residual: 0.0005413645148728493
Time step continuity errors : sum local = 0.0003300925168048176
                                 global = -1.449994163427073e-05
                             cumulative = 4.305308966793954e-06
nuTilda Initial residual: 0.006558614755850649
nuTilda   Final residual: 0.0005201934846330565
Bounding nuTilda>1e-16
yPlus min: 1.681200617930615 max: 33.7136714728431 mean: 13.2314104209119
CD-part1-force: 0.1459379795340607
CL-part1-force: 1.494362230331524
ExecutionTime = 4.85 s  ClockTime = 1 s

Time = 2
Minimal residual 0.008882768848438348 satisfied the prescribed tolerance 0.01

CD-part1-force: 0.144600906209956
CL-part1-force: 1.488244072431984
Printing Primal Residual Statistics.
U Residual Norm2: (13133.85905519741 7779.837488933796 3.035657953507753e-11)
U Residual Mean: (58.37215720549752 27.85084569203861 1.177637702537059e-13)
U Residual Max: (1596.835387422088 1059.394521130041 2.865345177916978e-12)
p Residual Norm2: 2268.852755438427
p Residual Mean: 5.453993754133612
p Residual Max: 599.5523498183421
nuTilda Residual Norm2: 5.123641912037352
nuTilda Residual Mean: 0.01021465416727228
nuTilda Residual Max: 0.7438356745469161
phi Residual Norm2: 9.244586299317369
phi Residual Mean: 0.01290440923181488
phi Residual Max: 1.841904366798857
End

Setting up primal boundary conditions based on pyOptions: 
Setting primal boundary conditions...
Setting U = (9.848090996683275 1.736405402273843 0) at inout
Setting primal boundary conditions...
Setting p = 0 at inout
Setting primal boundary conditions...
Setting nuTilda = 4.5e-05 at inout
Setting nut wall BC for wing. BCType=nutUSpaldingWallFunction
Running Primal Solver 003
Previous solution time 2 found and deleted.
No finite volume options present

Starting time loop

Checking mesh quality for time = 0
    Overall domain bounding box (-10.50030040740969 -10.1806001663208 0) (11.48330020904541 10.07929992675781 1)
    Mesh has 3 geometric (non-empty/wedge) directions 3{1}
    Mesh has 3 solution (non-empty) directions 3{1}
    Boundary openness (-4.656552971584797e-18 -3.4049361324016e-18 -5.638657976430435e-17) OK.
    Max cell openness = 2.641590909001111e-16 OK.
    Max aspect ratio = 4693.812948398494 OK.
    Minimum face area = 5.172558033806878e-07. Maximum face area = 1.111273686869279.  Face area magnitudes OK.
    Min volume = 5.172558033807119e-07. Max volume = 1.096460301865651.  Total volume = 445.2614370986274.  Cell volumes OK.
    Mesh non-orthogonality Max: 50.0489622255358 average: 5.064030982072487
    Non-orthogonality check OK.
    Face pyramids OK.
    Max skewness = 1.836065919227569 OK.
    Coupled point location match (average 0) OK.

Mesh OK.

Time = 1

U Initial residual: (0.003233786652016556 0.003114808689180022 0.003833690652131818)
U   Final residual: (0.0002500037253003428 0.0002392578914655356 0.0002692308393822688)
p Initial residual: 0.008806479454911476
p   Final residual: 0.0007701278658047374
Time step continuity errors : sum local = 0.0004637695955554694
                                 global = -8.930492574123426e-06
                             cumulative = -4.625183607329472e-06
nuTilda Initial residual: 0.006693240799458724
nuTilda   Final residual: 0.0005298579892406854
Bounding nuTilda>1e-16
yPlus min: 0.9173196992282332 max: 33.75848243303437 mean: 13.25380533782311
CD-part1-force: 0.1437282911198201
CL-part1-force: 1.484562454669989
ExecutionTime = 4.97 s  ClockTime = 1 s

Time = 2
Minimal residual 0.008467184709744842 satisfied the prescribed tolerance 0.01

CD-part1-force: 0.1425343651663845
CL-part1-force: 1.481438821642918
Printing Primal Residual Statistics.
U Residual Norm2: (13176.96881980815 7195.011421021735 3.129837006258122e-11)
U Residual Mean: (57.94265278897516 25.4228216239192 1.183385013791754e-13)
U Residual Max: (1595.657201571614 1008.82168517319 3.341711216171525e-12)
p Residual Norm2: 2036.537323262063
p Residual Mean: 4.997772027896292
p Residual Max: 608.7762716974718
nuTilda Residual Norm2: 5.495201313875288
nuTilda Residual Mean: 0.01076580276480424
nuTilda Residual Max: 0.7855455957032491
phi Residual Norm2: 8.711193980399287
phi Residual Mean: 0.01235914580361691
phi Residual Max: 1.318126883923646
End

FindFeasibleDesign Iter:  1
DesignVars:  [9.999555656673351]
Constraints:  [1.481438827482808]
Residual Norm:  0.012374115011461276
Setting up primal boundary conditions based on pyOptions: 
Setting primal boundary conditions...
Setting U = (9.848060689191909 1.736577283622293 0) at inout
Setting primal boundary conditions...
Setting p = 0 at inout
Setting primal boundary conditions...
Setting nuTilda = 4.5e-05 at inout
Setting nut wall BC for wing. BCType=nutUSpaldingWallFunction
Running Primal Solver 004
Previous solution time 2 found and deleted.
No finite volume options present

Starting time loop

Checking mesh quality for time = 0
    Overall domain bounding box (-10.50030040740969 -10.1806001663208 0) (11.48330020904541 10.07929992675781 1)
    Mesh has 3 geometric (non-empty/wedge) directions 3{1}
    Mesh has 3 solution (non-empty) directions 3{1}
    Boundary openness (-4.656552971584797e-18 -3.4049361324016e-18 -5.638657976430435e-17) OK.
    Max cell openness = 2.641590909001111e-16 OK.
    Max aspect ratio = 4693.812948398494 OK.
    Minimum face area = 5.172558033806878e-07. Maximum face area = 1.111273686869279.  Face area magnitudes OK.
    Min volume = 5.172558033807119e-07. Max volume = 1.096460301865651.  Total volume = 445.2614370986274.  Cell volumes OK.
    Mesh non-orthogonality Max: 50.0489622255358 average: 5.064030982072487
    Non-orthogonality check OK.
    Face pyramids OK.
    Max skewness = 1.836065919227569 OK.
    Coupled point location match (average 0) OK.

Mesh OK.

Time = 1

U Initial residual: (0.003072142933652148 0.002798711877981779 0.003570513295864158)
U   Final residual: (0.000242995421967118 0.0002140523244737636 0.0002463275497976419)
p Initial residual: 0.007988663327761564
p   Final residual: 0.0005065996997439578
Time step continuity errors : sum local = 0.0003056634547951563
                                 global = 1.235769639402418e-05
                             cumulative = 7.732512786694708e-06
nuTilda Initial residual: 0.00678339129344557
nuTilda   Final residual: 0.0005374587739045894
Bounding nuTilda>1e-16
yPlus min: 2.598328545853843 max: 33.72063327103108 mean: 13.25728614181705
CD-part1-force: 0.1407924640715321
CL-part1-force: 1.476795524004368
ExecutionTime = 5.1 s  ClockTime = 1 s

Time = 2
Minimal residual 0.007622634649437416 satisfied the prescribed tolerance 0.01

CD-part1-force: 0.1398742069045197
CL-part1-force: 1.475972330633785
Printing Primal Residual Statistics.
U Residual Norm2: (12431.09894445893 7455.546801008342 3.174243521524065e-11)
U Residual Mean: (54.94703116132737 25.467675127791 1.180863540912106e-13)
U Residual Max: (1402.191135500182 1091.464782226244 3.830445494512014e-12)
p Residual Norm2: 2074.938018563907
p Residual Mean: 4.714717866868582
p Residual Max: 724.2867746054102
nuTilda Residual Norm2: 5.912343451410943
nuTilda Residual Mean: 0.01142762899409886
nuTilda Residual Max: 0.8358102113869166
phi Residual Norm2: 8.205030932972663
phi Residual Mean: 0.01185100485537375
phi Residual Max: 1.396431679618556
End

Setting up primal boundary conditions based on pyOptions: 
Setting primal boundary conditions...
Setting U = (9.848193881855442 1.735821783877889 0) at inout
Setting primal boundary conditions...
Setting p = 0 at inout
Setting primal boundary conditions...
Setting nuTilda = 4.5e-05 at inout
Setting nut wall BC for wing. BCType=nutUSpaldingWallFunction
Running Primal Solver 005
Previous solution time 2 found and deleted.
No finite volume options present

Starting time loop

Checking mesh quality for time = 0
    Overall domain bounding box (-10.50030040740969 -10.1806001663208 0) (11.48330020904541 10.07929992675781 1)
    Mesh has 3 geometric (non-empty/wedge) directions 3{1}
    Mesh has 3 solution (non-empty) directions 3{1}
    Boundary openness (-4.656552971584797e-18 -3.4049361324016e-18 -5.638657976430435e-17) OK.
    Max cell openness = 2.641590909001111e-16 OK.
    Max aspect ratio = 4693.812948398494 OK.
    Minimum face area = 5.172558033806878e-07. Maximum face area = 1.111273686869279.  Face area magnitudes OK.
    Min volume = 5.172558033807119e-07. Max volume = 1.096460301865651.  Total volume = 445.2614370986274.  Cell volumes OK.
    Mesh non-orthogonality Max: 50.0489622255358 average: 5.064030982072487
    Non-orthogonality check OK.
    Face pyramids OK.
    Max skewness = 1.836065919227569 OK.
    Coupled point location match (average 0) OK.

Mesh OK.

Time = 1

U Initial residual: (0.00292281127608984 0.002908797994739934 0.003540894056835538)
U   Final residual: (0.0002318240854412203 0.0002248445266699574 0.0002414128309218337)
p Initial residual: 0.007406439975122276
p   Final residual: 0.0006450035996957452
Time step continuity errors : sum local = 0.0003877986414026431
                                 global = 1.554389058958354e-05
                             cumulative = 2.327640337627825e-05
nuTilda Initial residual: 0.006916301226051014
nuTilda   Final residual: 0.0005494287762407147
Bounding nuTilda>1e-16
yPlus min: 1.943322385613388 max: 33.67360176155604 mean: 13.23415036234491
CD-part1-force: 0.1395311372587736
CL-part1-force: 1.477626099039555
ExecutionTime = 5.21 s  ClockTime = 1 s

Time = 2
Minimal residual 0.007165000438609215 satisfied the prescribed tolerance 0.01

CD-part1-force: 0.1399402931913449
CL-part1-force: 1.479229776300599
Printing Primal Residual Statistics.
U Residual Norm2: (12243.48311525386 7063.47005393874 3.156743068992966e-11)
U Residual Mean: (53.27775798708386 23.56981589434242 1.168861995357789e-13)
U Residual Max: (1459.953340143485 988.6096735108334 4.061413684735455e-12)
p Residual Norm2: 1761.086178231087
p Residual Mean: 4.316352802972213
p Residual Max: 476.4748841637513
nuTilda Residual Norm2: 6.362954314094191
nuTilda Residual Mean: 0.01221262422456234
nuTilda Residual Max: 0.8967404730003214
phi Residual Norm2: 7.926392767218876
phi Residual Mean: 0.01109082281880401
phi Residual Max: 1.411939662273879
End

FindFeasibleDesign Iter:  2
DesignVars:  [9.996160207112098]
Constraints:  [1.479229775182325]
Residual Norm:  0.013846816545116733
Setting up primal boundary conditions based on pyOptions: 
Setting primal boundary conditions...
Setting U = (9.848163584550122 1.735993667022112 0) at inout
Setting primal boundary conditions...
Setting p = 0 at inout
Setting primal boundary conditions...
Setting nuTilda = 4.5e-05 at inout
Setting nut wall BC for wing. BCType=nutUSpaldingWallFunction
Running Primal Solver 006
Previous solution time 2 found and deleted.
No finite volume options present

Starting time loop

Checking mesh quality for time = 0
    Overall domain bounding box (-10.50030040740969 -10.1806001663208 0) (11.48330020904541 10.07929992675781 1)
    Mesh has 3 geometric (non-empty/wedge) directions 3{1}
    Mesh has 3 solution (non-empty) directions 3{1}
    Boundary openness (-4.656552971584797e-18 -3.4049361324016e-18 -5.638657976430435e-17) OK.
    Max cell openness = 2.641590909001111e-16 OK.
    Max aspect ratio = 4693.812948398494 OK.
    Minimum face area = 5.172558033806878e-07. Maximum face area = 1.111273686869279.  Face area magnitudes OK.
    Min volume = 5.172558033807119e-07. Max volume = 1.096460301865651.  Total volume = 445.2614370986274.  Cell volumes OK.
    Mesh non-orthogonality Max: 50.0489622255358 average: 5.064030982072487
    Non-orthogonality check OK.
    Face pyramids OK.
    Max skewness = 1.836065919227569 OK.
    Coupled point location match (average 0) OK.

Mesh OK.

Time = 1

U Initial residual: (0.002754012281856689 0.002587721895967264 0.003329256675445986)
U   Final residual: (0.0002174220131055905 0.000198109185309215 0.0002265873035206075)
p Initial residual: 0.006864950547472684
p   Final residual: 0.0004336959413601692
Time step continuity errors : sum local = 0.0002599096600942207
                                 global = 1.415962028497665e-06
                             cumulative = 2.469236540477592e-05
nuTilda Initial residual: 0.007024491148310854
nuTilda   Final residual: 0.0005563407528449839
Bounding nuTilda>1e-16
yPlus min: 0.9118564087350296 max: 33.62453436647507 mean: 13.2528364469092
CD-part1-force: 0.1408092607712962
CL-part1-force: 1.480078085500882
ExecutionTime = 5.34 s  ClockTime = 2 s

Time = 2
Minimal residual 0.007026104307081775 satisfied the prescribed tolerance 0.01

CD-part1-force: 0.141033103015732
CL-part1-force: 1.478994936700031
Printing Primal Residual Statistics.
U Residual Norm2: (11855.12973491383 6847.142790186671 3.083584531654732e-11)
U Residual Mean: (51.64149165447714 22.31254311620527 1.14332657973588e-13)
U Residual Max: (1441.905627487741 1029.558836269458 3.804248486835709e-12)
p Residual Norm2: 1730.133691781929
p Residual Mean: 4.044240330287463
p Residual Max: 453.8735985457913
nuTilda Residual Norm2: 6.80608267178695
nuTilda Residual Mean: 0.01287529500925837
nuTilda Residual Max: 0.9203661030472066
phi Residual Norm2: 7.722566356484459
phi Residual Mean: 0.01058642253192498
phi Residual Max: 1.242351310039467
End

Setting up primal boundary conditions based on pyOptions: 
Setting primal boundary conditions...
Setting U = (9.850861574913074 1.720617979651825 0) at inout
Setting primal boundary conditions...
Setting p = 0 at inout
Setting primal boundary conditions...
Setting nuTilda = 4.5e-05 at inout
Setting nut wall BC for wing. BCType=nutUSpaldingWallFunction
Running Primal Solver 007
Previous solution time 2 found and deleted.
No finite volume options present

Starting time loop

Checking mesh quality for time = 0
    Overall domain bounding box (-10.50030040740969 -10.1806001663208 0) (11.48330020904541 10.07929992675781 1)
    Mesh has 3 geometric (non-empty/wedge) directions 3{1}
    Mesh has 3 solution (non-empty) directions 3{1}
    Boundary openness (-4.656552971584797e-18 -3.4049361324016e-18 -5.638657976430435e-17) OK.
    Max cell openness = 2.641590909001111e-16 OK.
    Max aspect ratio = 4693.812948398494 OK.
    Minimum face area = 5.172558033806878e-07. Maximum face area = 1.111273686869279.  Face area magnitudes OK.
    Min volume = 5.172558033807119e-07. Max volume = 1.096460301865651.  Total volume = 445.2614370986274.  Cell volumes OK.
    Mesh non-orthogonality Max: 50.0489622255358 average: 5.064030982072487
    Non-orthogonality check OK.
    Face pyramids OK.
    Max skewness = 1.836065919227569 OK.
    Coupled point location match (average 0) OK.

Mesh OK.

Time = 1

U Initial residual: (0.002734102183188087 0.003445874067950041 0.00311661203604597)
U   Final residual: (0.0002105205059012551 0.0002311066076710531 0.0002208265134816359)
p Initial residual: 0.007530873018896485
p   Final residual: 0.0005354766331487444
Time step continuity errors : sum local = 0.0003219355189683581
                                 global = -4.415256319800308e-06
                             cumulative = 2.027710908497561e-05
nuTilda Initial residual: 0.007077568151838382
nuTilda   Final residual: 0.0005581765739626696
Bounding nuTilda>1e-16
yPlus min: 1.106251194997068 max: 33.52551047405112 mean: 13.27528588234549
CD-part1-force: 0.1385125997426189
CL-part1-force: 1.477137682221913
ExecutionTime = 5.46 s  ClockTime = 2 s

Time = 2
Minimal residual 0.007121936504176852 satisfied the prescribed tolerance 0.01

CD-part1-force: 0.137376671653072
CL-part1-force: 1.47323153109337
Printing Primal Residual Statistics.
U Residual Norm2: (11228.49516876777 6667.972776656566 2.955431353764269e-11)
U Residual Mean: (49.38745048917199 21.34757712114571 1.113484056095393e-13)
U Residual Max: (1141.740072044209 996.3207457982775 3.640758704381481e-12)
p Residual Norm2: 1602.782891389345
p Residual Mean: 3.739856489261113
p Residual Max: 456.3985575991471
nuTilda Residual Norm2: 7.266528655344421
nuTilda Residual Mean: 0.01364294914428051
nuTilda Residual Max: 1.000181474215579
phi Residual Norm2: 7.303412886527991
phi Residual Mean: 0.0101477662928799
phi Residual Max: 1.220888576103299
End

FindFeasibleDesign Iter:  3
DesignVars:  [9.907718033461713]
Constraints:  [1.4732315214623402]
Residual Norm:  0.017845652358439896
Setting up primal boundary conditions based on pyOptions: 
Setting primal boundary conditions...
Setting U = (9.850831542963789 1.720789909358392 0) at inout
Setting primal boundary conditions...
Setting p = 0 at inout
Setting primal boundary conditions...
Setting nuTilda = 4.5e-05 at inout
Setting nut wall BC for wing. BCType=nutUSpaldingWallFunction
Running Primal Solver 008
Previous solution time 2 found and deleted.
No finite volume options present

Starting time loop

Checking mesh quality for time = 0
    Overall domain bounding box (-10.50030040740969 -10.1806001663208 0) (11.48330020904541 10.07929992675781 1)
    Mesh has 3 geometric (non-empty/wedge) directions 3{1}
    Mesh has 3 solution (non-empty) directions 3{1}
    Boundary openness (-4.656552971584797e-18 -3.4049361324016e-18 -5.638657976430435e-17) OK.
    Max cell openness = 2.641590909001111e-16 OK.
    Max aspect ratio = 4693.812948398494 OK.
    Minimum face area = 5.172558033806878e-07. Maximum face area = 1.111273686869279.  Face area magnitudes OK.
    Min volume = 5.172558033807119e-07. Max volume = 1.096460301865651.  Total volume = 445.2614370986274.  Cell volumes OK.
    Mesh non-orthogonality Max: 50.0489622255358 average: 5.064030982072487
    Non-orthogonality check OK.
    Face pyramids OK.
    Max skewness = 1.836065919227569 OK.
    Coupled point location match (average 0) OK.

Mesh OK.

Time = 1

U Initial residual: (0.002638795576320995 0.003072786584831037 0.003405911221382962)
U   Final residual: (0.0002062477620422013 0.0002356868204093335 0.0002337155463268485)
p Initial residual: 0.006690932660289244
p   Final residual: 0.0004030852817098197
Time step continuity errors : sum local = 0.0002422036337402745
                                 global = 1.662349204525006e-06
                             cumulative = 2.193945828950061e-05
nuTilda Initial residual: 0.007182711306617773
nuTilda   Final residual: 0.0005603114778884953
Bounding nuTilda>1e-16
yPlus min: 1.742705667461987 max: 33.37207364236565 mean: 13.30114283137281
CD-part1-force: 0.1344664019857151
CL-part1-force: 1.467537001875663
ExecutionTime = 5.58 s  ClockTime = 2 s

Time = 2
Minimal residual 0.007212924484247057 satisfied the prescribed tolerance 0.01

CD-part1-force: 0.1328627099126806
CL-part1-force: 1.465083468448934
Printing Primal Residual Statistics.
U Residual Norm2: (11044.80448772919 6312.359413944508 2.841938887851406e-11)
U Residual Mean: (47.51143370061502 19.40688843154982 1.097141869788479e-13)
U Residual Max: (1111.806795053619 1008.086683499975 3.538430483195986e-12)
p Residual Norm2: 1658.978755066125
p Residual Mean: 3.722291466429655
p Residual Max: 649.7796427732968
nuTilda Residual Norm2: 7.741153662753473
nuTilda Residual Mean: 0.01452514852798057
nuTilda Residual Max: 1.024325495976476
phi Residual Norm2: 6.883436467794813
phi Residual Mean: 0.009400109146309043
phi Residual Max: 1.307219135780727
End

[e32f9587393c:10202] 9 more processes have sent help message help-mpi-btl-base.txt / btl:no-nics
[e32f9587393c:10202] Set MCA parameter "orte_base_help_aggregate" to 0 to see all help / error messages
Setting up primal boundary conditions based on pyOptions: 
Setting primal boundary conditions...
Setting U = (9.850960216522985 1.720053142342239 0) at inout
Setting primal boundary conditions...
Setting p = 0 at inout
Setting primal boundary conditions...
Setting nuTilda = 4.5e-05 at inout
Setting nut wall BC for wing. BCType=nutUSpaldingWallFunction
Running Primal Solver 009
Previous solution time 2 found and deleted.
No finite volume options present

Starting time loop

Checking mesh quality for time = 0
    Overall domain bounding box (-10.50030040740969 -10.1806001663208 0) (11.48330020904541 10.07929992675781 1)
    Mesh has 3 geometric (non-empty/wedge) directions 3{1}
    Mesh has 3 solution (non-empty) directions 3{1}
    Boundary openness (-4.656552971584797e-18 -3.4049361324016e-18 -5.638657976430435e-17) OK.
    Max cell openness = 2.641590909001111e-16 OK.
    Max aspect ratio = 4693.812948398494 OK.
    Minimum face area = 5.172558033806878e-07. Maximum face area = 1.111273686869279.  Face area magnitudes OK.
    Min volume = 5.172558033807119e-07. Max volume = 1.096460301865651.  Total volume = 445.2614370986274.  Cell volumes OK.
    Mesh non-orthogonality Max: 50.0489622255358 average: 5.064030982072487
    Non-orthogonality check OK.
    Face pyramids OK.
    Max skewness = 1.836065919227569 OK.
    Coupled point location match (average 0) OK.

Mesh OK.

Time = 1

U Initial residual: (0.002588638236304121 0.002896701595883845 0.003209085877177625)
U   Final residual: (0.0002018951586161407 0.0002293118893916527 0.000214871870237559)
p Initial residual: 0.006275133556776861
p   Final residual: 0.0004935399348329124
Time step continuity errors : sum local = 0.0002951792945230831
                                 global = 8.151177747428779e-06
                             cumulative = 3.009063603692939e-05
nuTilda Initial residual: 0.007271610601569793
nuTilda   Final residual: 0.000568103679711638
Bounding nuTilda>1e-16
yPlus min: 1.451343758179689 max: 33.20823982739749 mean: 13.34426751655946
CD-part1-force: 0.1317114853627802
CL-part1-force: 1.459001419970907
ExecutionTime = 5.71 s  ClockTime = 2 s

Time = 2
Minimal residual 0.007270352199085513 satisfied the prescribed tolerance 0.01

CD-part1-force: 0.1313734601400169
CL-part1-force: 1.454646557643628
Printing Primal Residual Statistics.
U Residual Norm2: (10714.4769919618 6204.855937611466 2.72204798549908e-11)
U Residual Mean: (46.46060527972529 18.65024512495469 1.074173340012116e-13)
U Residual Max: (1170.799533804786 1088.03948367293 4.241289792984052e-12)
p Residual Norm2: 1453.332647046003
p Residual Mean: 3.207207737560616
p Residual Max: 682.8065632061737
nuTilda Residual Norm2: 8.217995033355892
nuTilda Residual Mean: 0.01527811000958564
nuTilda Residual Max: 1.084876711710323
phi Residual Norm2: 6.893443297837296
phi Residual Mean: 0.009062843992601249
phi Residual Max: 1.0245018740263
End

FindFeasibleDesign Iter:  4
DesignVars:  [9.904432774434953]
Constraints:  [1.4546465493871836]
Residual Norm:  0.03023563374187758
Setting up primal boundary conditions based on pyOptions: 
Setting primal boundary conditions...
Setting U = (9.850930194431957 1.720225073770512 0) at inout
Setting primal boundary conditions...
Setting p = 0 at inout
Setting primal boundary conditions...
Setting nuTilda = 4.5e-05 at inout
Setting nut wall BC for wing. BCType=nutUSpaldingWallFunction
Running Primal Solver 010
Previous solution time 2 found and deleted.
No finite volume options present

Starting time loop

Checking mesh quality for time = 0
    Overall domain bounding box (-10.50030040740969 -10.1806001663208 0) (11.48330020904541 10.07929992675781 1)
    Mesh has 3 geometric (non-empty/wedge) directions 3{1}
    Mesh has 3 solution (non-empty) directions 3{1}
    Boundary openness (-4.656552971584797e-18 -3.4049361324016e-18 -5.638657976430435e-17) OK.
    Max cell openness = 2.641590909001111e-16 OK.
    Max aspect ratio = 4693.812948398494 OK.
    Minimum face area = 5.172558033806878e-07. Maximum face area = 1.111273686869279.  Face area magnitudes OK.
    Min volume = 5.172558033807119e-07. Max volume = 1.096460301865651.  Total volume = 445.2614370986274.  Cell volumes OK.
    Mesh non-orthogonality Max: 50.0489622255358 average: 5.064030982072487
    Non-orthogonality check OK.
    Face pyramids OK.
    Max skewness = 1.836065919227569 OK.
    Coupled point location match (average 0) OK.

Mesh OK.

Time = 1

U Initial residual: (0.002505996661493753 0.002711379996011936 0.002909811222118794)
U   Final residual: (0.0001935026066355759 0.0002110627174020943 0.0001969526655146417)
p Initial residual: 0.005706505400303212
p   Final residual: 0.0003241480346406518
Time step continuity errors : sum local = 0.0001904714147845071
                                 global = 8.543624774530174e-06
                             cumulative = 3.863426081145956e-05
nuTilda Initial residual: 0.007287136969664731
nuTilda   Final residual: 0.0005716032320341492
Bounding nuTilda>1e-16
yPlus min: 2.301625205297886 max: 33.07353954421015 mean: 13.38738716143635
CD-part1-force: 0.1313286484829843
CL-part1-force: 1.45521319718995
ExecutionTime = 5.83 s  ClockTime = 2 s

Time = 2
Minimal residual 0.007296405154970876 satisfied the prescribed tolerance 0.01

CD-part1-force: 0.1315351548549608
CL-part1-force: 1.455726029095048
Printing Primal Residual Statistics.
U Residual Norm2: (10505.92581645544 5832.112585558351 2.560174406548916e-11)
U Residual Mean: (45.17387298051715 17.64492869158685 1.044944541751007e-13)
U Residual Max: (1211.326955867238 1098.930460956195 3.182686174691044e-12)
p Residual Norm2: 1421.002507662229
p Residual Mean: 3.079043190460756
p Residual Max: 597.705243034281
nuTilda Residual Norm2: 8.711503303756263
nuTilda Residual Mean: 0.01608348418249271
nuTilda Residual Max: 1.124396111371065
phi Residual Norm2: 6.418885183580782
phi Residual Mean: 0.008651187720612788
phi Residual Max: 0.9093982922676788
End

Setting up primal boundary conditions based on pyOptions: 
Setting primal boundary conditions...
Setting U = (9.849696266170454 1.727276313792269 0) at inout
Setting primal boundary conditions...
Setting p = 0 at inout
Setting primal boundary conditions...
Setting nuTilda = 4.5e-05 at inout
Setting nut wall BC for wing. BCType=nutUSpaldingWallFunction
Running Primal Solver 011
Previous solution time 2 found and deleted.
No finite volume options present

Starting time loop

Checking mesh quality for time = 0
    Overall domain bounding box (-10.50030040740969 -10.1806001663208 0) (11.48330020904541 10.07929992675781 1)
    Mesh has 3 geometric (non-empty/wedge) directions 3{1}
    Mesh has 3 solution (non-empty) directions 3{1}
    Boundary openness (-4.656552971584797e-18 -3.4049361324016e-18 -5.638657976430435e-17) OK.
    Max cell openness = 2.641590909001111e-16 OK.
    Max aspect ratio = 4693.812948398494 OK.
    Minimum face area = 5.172558033806878e-07. Maximum face area = 1.111273686869279.  Face area magnitudes OK.
    Min volume = 5.172558033807119e-07. Max volume = 1.096460301865651.  Total volume = 445.2614370986274.  Cell volumes OK.
    Mesh non-orthogonality Max: 50.0489622255358 average: 5.064030982072487
    Non-orthogonality check OK.
    Face pyramids OK.
    Max skewness = 1.836065919227569 OK.
    Coupled point location match (average 0) OK.

Mesh OK.

Time = 1

U Initial residual: (0.002479292557454397 0.002924338625872 0.002728991888640979)
U   Final residual: (0.0001894551557052306 0.0002090485639621281 0.00018910870939527)
p Initial residual: 0.005536652240915809
p   Final residual: 0.0004359668156973453
Time step continuity errors : sum local = 0.0002597017890957514
                                 global = 6.325309867253686e-06
                             cumulative = 4.495957067871325e-05
nuTilda Initial residual: 0.007344367838379471
nuTilda   Final residual: 0.0005760771346177244
Bounding nuTilda>1e-16
yPlus min: 1.044727636666155 max: 32.98628422071188 mean: 13.41686473364439
CD-part1-force: 0.1327430179448204
CL-part1-force: 1.452395078067487
ExecutionTime = 5.95 s  ClockTime = 2 s

Time = 2
Minimal residual 0.007360218374354462 satisfied the prescribed tolerance 0.01

CD-part1-force: 0.1322913238555906
CL-part1-force: 1.447922097275348
Printing Primal Residual Statistics.
U Residual Norm2: (9932.782720981537 5828.287002317035 2.444875632048743e-11)
U Residual Mean: (43.4671310099635 17.3528257863493 1.017013871692804e-13)
U Residual Max: (984.5402868610113 1145.583769488605 3.112823121928128e-12)
p Residual Norm2: 1548.646365910319
p Residual Mean: 2.975484508830495
p Residual Max: 728.2808124605303
nuTilda Residual Norm2: 9.249483876230865
nuTilda Residual Mean: 0.01716833165681222
nuTilda Residual Max: 1.171757059202358
phi Residual Norm2: 6.561818875152581
phi Residual Mean: 0.008505818281755258
phi Residual Max: 0.8834528972989736
End

FindFeasibleDesign Iter:  5
DesignVars:  [9.946447335787752]
Constraints:  [1.4479220930412535]
Residual Norm:  0.03471860463916432
Setting up primal boundary conditions based on pyOptions: 
Setting primal boundary conditions...
Setting U = (9.849666118011495 1.727448223159347 0) at inout
Setting primal boundary conditions...
Setting p = 0 at inout
Setting primal boundary conditions...
Setting nuTilda = 4.5e-05 at inout
Setting nut wall BC for wing. BCType=nutUSpaldingWallFunction
Running Primal Solver 012
Previous solution time 2 found and deleted.
No finite volume options present

Starting time loop

Checking mesh quality for time = 0
    Overall domain bounding box (-10.50030040740969 -10.1806001663208 0) (11.48330020904541 10.07929992675781 1)
    Mesh has 3 geometric (non-empty/wedge) directions 3{1}
    Mesh has 3 solution (non-empty) directions 3{1}
    Boundary openness (-4.656552971584797e-18 -3.4049361324016e-18 -5.638657976430435e-17) OK.
    Max cell openness = 2.641590909001111e-16 OK.
    Max aspect ratio = 4693.812948398494 OK.
    Minimum face area = 5.172558033806878e-07. Maximum face area = 1.111273686869279.  Face area magnitudes OK.
    Min volume = 5.172558033807119e-07. Max volume = 1.096460301865651.  Total volume = 445.2614370986274.  Cell volumes OK.
    Mesh non-orthogonality Max: 50.0489622255358 average: 5.064030982072487
    Non-orthogonality check OK.
    Face pyramids OK.
    Max skewness = 1.836065919227569 OK.
    Coupled point location match (average 0) OK.

Mesh OK.

Time = 1

U Initial residual: (0.002357990049398539 0.002593337478089132 0.002645647933867629)
U   Final residual: (0.0001830063270246062 0.0001987087789324352 0.0001880868037900079)
p Initial residual: 0.004962774046758617
p   Final residual: 0.0002898562567818615
Time step continuity errors : sum local = 0.0001723331175405288
                                 global = 3.603933870649871e-06
                             cumulative = 4.856350454936312e-05
nuTilda Initial residual: 0.007383707447296797
nuTilda   Final residual: 0.0005742122902295511
Bounding nuTilda>1e-16
yPlus min: 2.530715681769188 max: 32.93400638738396 mean: 13.44005308048768
CD-part1-force: 0.1303926772928869
CL-part1-force: 1.440826553386487
ExecutionTime = 6.08 s  ClockTime = 2 s

Time = 2
Minimal residual 0.007402467222627527 satisfied the prescribed tolerance 0.01

CD-part1-force: 0.1287874248146013
CL-part1-force: 1.435689025870588
Printing Primal Residual Statistics.
U Residual Norm2: (9793.875542569614 5816.234643331252 2.337517683725161e-11)
U Residual Mean: (42.93050743838594 17.06658672754757 9.962149523807587e-14)
U Residual Max: (957.350895920561 1123.526453615671 2.875244161308665e-12)
p Residual Norm2: 1489.847669934285
p Residual Mean: 2.823707285142414
p Residual Max: 516.4378044768569
nuTilda Residual Norm2: 9.757647052647462
nuTilda Residual Mean: 0.01803594887341899
nuTilda Residual Max: 1.28189286711
phi Residual Norm2: 6.490251514414014
phi Residual Mean: 0.008336405587045006
phi Residual Max: 0.8738721586796222
End

Setting up primal boundary conditions based on pyOptions: 
Setting primal boundary conditions...
Setting U = (9.849824577598628 1.726544465264067 0) at inout
Setting primal boundary conditions...
Setting p = 0 at inout
Setting primal boundary conditions...
Setting nuTilda = 4.5e-05 at inout
Setting nut wall BC for wing. BCType=nutUSpaldingWallFunction
Running Primal Solver 013
Previous solution time 2 found and deleted.
No finite volume options present

Starting time loop

Checking mesh quality for time = 0
    Overall domain bounding box (-10.50030040740969 -10.1806001663208 0) (11.48330020904541 10.07929992675781 1)
    Mesh has 3 geometric (non-empty/wedge) directions 3{1}
    Mesh has 3 solution (non-empty) directions 3{1}
    Boundary openness (-4.656552971584797e-18 -3.4049361324016e-18 -5.638657976430435e-17) OK.
    Max cell openness = 2.641590909001111e-16 OK.
    Max aspect ratio = 4693.812948398494 OK.
    Minimum face area = 5.172558033806878e-07. Maximum face area = 1.111273686869279.  Face area magnitudes OK.
    Min volume = 5.172558033807119e-07. Max volume = 1.096460301865651.  Total volume = 445.2614370986274.  Cell volumes OK.
    Mesh non-orthogonality Max: 50.0489622255358 average: 5.064030982072487
    Non-orthogonality check OK.
    Face pyramids OK.
    Max skewness = 1.836065919227569 OK.
    Coupled point location match (average 0) OK.

Mesh OK.

Time = 1

U Initial residual: (0.002290317833354553 0.00261729303112838 0.002807261351413546)
U   Final residual: (0.0001789211725132025 0.0001988333122154414 0.0002027828412899029)
p Initial residual: 0.004569345097026103
p   Final residual: 0.0003692357526534282
Time step continuity errors : sum local = 0.0002177131673467049
                                 global = -2.138276183744067e-06
                             cumulative = 4.642522836561905e-05
nuTilda Initial residual: 0.007408080049355299
nuTilda   Final residual: 0.0005735272705171056
Bounding nuTilda>1e-16
yPlus min: 1.391766472641967 max: 32.92431424032283 mean: 13.45677947892564
CD-part1-force: 0.1280655372871883
CL-part1-force: 1.434227439739776
ExecutionTime = 6.19 s  ClockTime = 2 s

Time = 2
Minimal residual 0.00738234395746535 satisfied the prescribed tolerance 0.01

CD-part1-force: 0.1277323460554061
CL-part1-force: 1.433129813582092
Printing Primal Residual Statistics.
U Residual Norm2: (9519.110847623797 5837.709016973039 2.230594009637193e-11)
U Residual Mean: (41.77864649302933 17.06379617801268 9.728343559880557e-14)
U Residual Max: (1169.604889317928 1049.544913874989 2.654084598281623e-12)
p Residual Norm2: 1340.248897816928
p Residual Mean: 2.608677199404792
p Residual Max: 492.4284609845404
nuTilda Residual Norm2: 10.24371326344346
nuTilda Residual Mean: 0.01881614477737541
nuTilda Residual Max: 1.32091271581792
phi Residual Norm2: 6.468990010100971
phi Residual Mean: 0.008085658849857794
phi Residual Max: 0.8524172178511006
End

FindFeasibleDesign Iter:  6
DesignVars:  [9.942190193472253]
Constraints:  [1.4331298184287777]
Residual Norm:  0.04458012104748151
Setting up primal boundary conditions based on pyOptions: 
Setting primal boundary conditions...
Setting U = (9.849794442212815 1.726716376870714 0) at inout
Setting primal boundary conditions...
Setting p = 0 at inout
Setting primal boundary conditions...
Setting nuTilda = 4.5e-05 at inout
Setting nut wall BC for wing. BCType=nutUSpaldingWallFunction
Running Primal Solver 014
Previous solution time 2 found and deleted.
No finite volume options present

Starting time loop

Checking mesh quality for time = 0
    Overall domain bounding box (-10.50030040740969 -10.1806001663208 0) (11.48330020904541 10.07929992675781 1)
    Mesh has 3 geometric (non-empty/wedge) directions 3{1}
    Mesh has 3 solution (non-empty) directions 3{1}
    Boundary openness (-4.656552971584797e-18 -3.4049361324016e-18 -5.638657976430435e-17) OK.
    Max cell openness = 2.641590909001111e-16 OK.
    Max aspect ratio = 4693.812948398494 OK.
    Minimum face area = 5.172558033806878e-07. Maximum face area = 1.111273686869279.  Face area magnitudes OK.
    Min volume = 5.172558033807119e-07. Max volume = 1.096460301865651.  Total volume = 445.2614370986274.  Cell volumes OK.
    Mesh non-orthogonality Max: 50.0489622255358 average: 5.064030982072487
    Non-orthogonality check OK.
    Face pyramids OK.
    Max skewness = 1.836065919227569 OK.
    Coupled point location match (average 0) OK.

Mesh OK.

Time = 1

U Initial residual: (0.002227813167969681 0.002560357768465739 0.003150481258760525)
U   Final residual: (0.0001747024790369569 0.0001962551193813226 0.0002032144836749741)
p Initial residual: 0.004450981247502169
p   Final residual: 0.0002849531767762359
Time step continuity errors : sum local = 0.0001676825177424832
                                 global = 6.090048039863207e-06
                             cumulative = 5.251527640548226e-05
nuTilda Initial residual: 0.007376183616219447
nuTilda   Final residual: 0.0005655273351339326
Bounding nuTilda>1e-16
yPlus min: 1.595971275399805 max: 32.94697913601971 mean: 13.47419874055233
CD-part1-force: 0.1274463579990035
CL-part1-force: 1.428874203979776
ExecutionTime = 6.31 s  ClockTime = 2 s

Time = 2
Minimal residual 0.00738650106787922 satisfied the prescribed tolerance 0.01

CD-part1-force: 0.1269048070217122
CL-part1-force: 1.425005367557381
Printing Primal Residual Statistics.
U Residual Norm2: (9486.923017473193 6154.791447330284 2.12469618068964e-11)
U Residual Mean: (41.22350292879866 17.22961866771432 9.468970109194724e-14)
U Residual Max: (1533.204874673671 1369.408603903136 2.937194157206543e-12)
p Residual Norm2: 1413.022278856191
p Residual Mean: 2.603604482498751
p Residual Max: 503.2870344674801
nuTilda Residual Norm2: 10.67443920892532
nuTilda Residual Mean: 0.0196199713532097
nuTilda Residual Max: 1.342023477568651
phi Residual Norm2: 6.27989880895248
phi Residual Mean: 0.00803683979990762
phi Residual Max: 0.755242355255209
End

Setting up primal boundary conditions based on pyOptions: 
Setting primal boundary conditions...
Setting U = (9.850072500481311 1.725129483621985 0) at inout
Setting primal boundary conditions...
Setting p = 0 at inout
Setting primal boundary conditions...
Setting nuTilda = 4.5e-05 at inout
Setting nut wall BC for wing. BCType=nutUSpaldingWallFunction
Running Primal Solver 015
Previous solution time 2 found and deleted.
No finite volume options present

Starting time loop

Checking mesh quality for time = 0
    Overall domain bounding box (-10.50030040740969 -10.1806001663208 0) (11.48330020904541 10.07929992675781 1)
    Mesh has 3 geometric (non-empty/wedge) directions 3{1}
    Mesh has 3 solution (non-empty) directions 3{1}
    Boundary openness (-4.656552971584797e-18 -3.4049361324016e-18 -5.638657976430435e-17) OK.
    Max cell openness = 2.641590909001111e-16 OK.
    Max aspect ratio = 4693.812948398494 OK.
    Minimum face area = 5.172558033806878e-07. Maximum face area = 1.111273686869279.  Face area magnitudes OK.
    Min volume = 5.172558033807119e-07. Max volume = 1.096460301865651.  Total volume = 445.2614370986274.  Cell volumes OK.
    Mesh non-orthogonality Max: 50.0489622255358 average: 5.064030982072487
    Non-orthogonality check OK.
    Face pyramids OK.
    Max skewness = 1.836065919227569 OK.
    Coupled point location match (average 0) OK.

Mesh OK.

Time = 1

U Initial residual: (0.002213474289235334 0.002660556649867249 0.002838518828240916)
U   Final residual: (0.0001730994726089946 0.0001964270350955832 0.0001905698320766355)
p Initial residual: 0.004507203411563491
p   Final residual: 0.0003263204785740309
Time step continuity errors : sum local = 0.0001919686270185941
                                 global = 4.130943244637169e-06
                             cumulative = 5.664621965011944e-05
nuTilda Initial residual: 0.007378067447050737
nuTilda   Final residual: 0.00055447583551943
Bounding nuTilda>1e-16
yPlus min: 1.184399216020348 max: 32.97652351191017 mean: 13.46483947960678
CD-part1-force: 0.1258420349057526
CL-part1-force: 1.425341285197105
ExecutionTime = 6.44 s  ClockTime = 3 s

Time = 2
Minimal residual 0.007372387759538993 satisfied the prescribed tolerance 0.01

CD-part1-force: 0.1246985308610801
CL-part1-force: 1.424989717897165
Printing Primal Residual Statistics.
U Residual Norm2: (9752.736362367126 6646.173863173751 2.047281912171599e-11)
U Residual Mean: (41.38766814748347 17.62157943524357 9.308711058539199e-14)
U Residual Max: (2118.063948669414 1611.119691329073 3.344719263299909e-12)
p Residual Norm2: 1508.631489059684
p Residual Mean: 2.594044074187609
p Residual Max: 632.0414651441497
nuTilda Residual Norm2: 11.03255438882384
nuTilda Residual Mean: 0.02034987957787163
nuTilda Residual Max: 1.439237304353568
phi Residual Norm2: 6.072251066742737
phi Residual Mean: 0.007839763266835272
phi Residual Max: 0.9130450408354501
End

FindFeasibleDesign Iter:  7
DesignVars:  [9.93395944224355]
Constraints:  [1.4249897512084477]
Residual Norm:  0.050006832527701515
Setting up primal boundary conditions based on pyOptions: 
Setting primal boundary conditions...
Setting U = (9.850042389791549 1.725301399555918 0) at inout
Setting primal boundary conditions...
Setting p = 0 at inout
Setting primal boundary conditions...
Setting nuTilda = 4.5e-05 at inout
Setting nut wall BC for wing. BCType=nutUSpaldingWallFunction
Running Primal Solver 016
Previous solution time 2 found and deleted.
No finite volume options present

Starting time loop

Checking mesh quality for time = 0
    Overall domain bounding box (-10.50030040740969 -10.1806001663208 0) (11.48330020904541 10.07929992675781 1)
    Mesh has 3 geometric (non-empty/wedge) directions 3{1}
    Mesh has 3 solution (non-empty) directions 3{1}
    Boundary openness (-4.656552971584797e-18 -3.4049361324016e-18 -5.638657976430435e-17) OK.
    Max cell openness = 2.641590909001111e-16 OK.
    Max aspect ratio = 4693.812948398494 OK.
    Minimum face area = 5.172558033806878e-07. Maximum face area = 1.111273686869279.  Face area magnitudes OK.
    Min volume = 5.172558033807119e-07. Max volume = 1.096460301865651.  Total volume = 445.2614370986274.  Cell volumes OK.
    Mesh non-orthogonality Max: 50.0489622255358 average: 5.064030982072487
    Non-orthogonality check OK.
    Face pyramids OK.
    Max skewness = 1.836065919227569 OK.
    Coupled point location match (average 0) OK.

Mesh OK.

Time = 1

U Initial residual: (0.002193581309741881 0.002512683616064811 0.002617226205441373)
U   Final residual: (0.0001712050218555109 0.0001839832718438389 0.0001841166433005983)
p Initial residual: 0.004217841033881336
p   Final residual: 0.0004136647395687746
Time step continuity errors : sum local = 0.0002463399718561448
                                 global = -2.11641736882702e-06
                             cumulative = 5.452980228129242e-05
nuTilda Initial residual: 0.007368904937626502
nuTilda   Final residual: 0.0005516009020099744
Bounding nuTilda>1e-16
yPlus min: 0.9544924710579925 max: 32.97957812126487 mean: 13.46031796198589
CD-part1-force: 0.1235406247399217
CL-part1-force: 1.420553579450485
ExecutionTime = 6.56 s  ClockTime = 3 s

Time = 2
Minimal residual 0.007405026882465412 satisfied the prescribed tolerance 0.01

CD-part1-force: 0.1214623642104353
CL-part1-force: 1.416477028480118
Printing Primal Residual Statistics.
U Residual Norm2: (10142.12218256386 6700.847704763644 1.967582415819609e-11)
U Residual Mean: (41.8530899454182 17.54741259433433 9.144624049731416e-14)
U Residual Max: (2458.913198904484 1749.62704940607 2.963010635433265e-12)
p Residual Norm2: 1753.121766013757
p Residual Mean: 2.690311082999023
p Residual Max: 755.5912419021206
nuTilda Residual Norm2: 11.34120247232502
nuTilda Residual Mean: 0.02112934185331028
nuTilda Residual Max: 1.515069330413655
phi Residual Norm2: 6.396135140278195
phi Residual Mean: 0.007931210892504254
phi Residual Max: 1.011414590398999
End

Setting up primal boundary conditions based on pyOptions: 
Setting primal boundary conditions...
Setting U = (9.850337694440853 1.72361460468332 0) at inout
Setting primal boundary conditions...
Setting p = 0 at inout
Setting primal boundary conditions...
Setting nuTilda = 4.5e-05 at inout
Setting nut wall BC for wing. BCType=nutUSpaldingWallFunction
Running Primal Solver 017
Previous solution time 2 found and deleted.
No finite volume options present

Starting time loop

Checking mesh quality for time = 0
    Overall domain bounding box (-10.50030040740969 -10.1806001663208 0) (11.48330020904541 10.07929992675781 1)
    Mesh has 3 geometric (non-empty/wedge) directions 3{1}
    Mesh has 3 solution (non-empty) directions 3{1}
    Boundary openness (-4.656552971584797e-18 -3.4049361324016e-18 -5.638657976430435e-17) OK.
    Max cell openness = 2.641590909001111e-16 OK.
    Max aspect ratio = 4693.812948398494 OK.
    Minimum face area = 5.172558033806878e-07. Maximum face area = 1.111273686869279.  Face area magnitudes OK.
    Min volume = 5.172558033807119e-07. Max volume = 1.096460301865651.  Total volume = 445.2614370986274.  Cell volumes OK.
    Mesh non-orthogonality Max: 50.0489622255358 average: 5.064030982072487
    Non-orthogonality check OK.
    Face pyramids OK.
    Max skewness = 1.836065919227569 OK.
    Coupled point location match (average 0) OK.

Mesh OK.

Time = 1

U Initial residual: (0.002209291173935938 0.002494253712256387 0.002446889045593575)
U   Final residual: (0.0001715683041058047 0.0001778563997692013 0.0001756669326486155)
p Initial residual: 0.004148690330398034
p   Final residual: 0.0003373296372362552
Time step continuity errors : sum local = 0.0002002660383712628
                                 global = -6.001061677167612e-06
                             cumulative = 4.852874060412481e-05
nuTilda Initial residual: 0.007391784933257864
nuTilda   Final residual: 0.0005622183071651844
Bounding nuTilda>1e-16
yPlus min: 2.207677884658807 max: 32.92991726766018 mean: 13.43509290718162
CD-part1-force: 0.1196276178683623
CL-part1-force: 1.419396704252785
ExecutionTime = 6.69 s  ClockTime = 3 s

Time = 2
Minimal residual 0.007420072936299418 satisfied the prescribed tolerance 0.01

CD-part1-force: 0.1181718817695559
CL-part1-force: 1.423012329650397
Printing Primal Residual Statistics.
U Residual Norm2: (10705.91212117054 6405.21371638529 1.886230120880135e-11)
U Residual Mean: (43.66689738051338 17.42603221759585 9.047693920821609e-14)
U Residual Max: (2484.157369821497 1625.821729426162 2.419561053041077e-12)
p Residual Norm2: 1905.686465366607
p Residual Mean: 2.693592511011086
p Residual Max: 774.3750500400947
nuTilda Residual Norm2: 11.64091791769479
nuTilda Residual Mean: 0.02187530510022814
nuTilda Residual Max: 1.564526223052759
phi Residual Norm2: 6.205448667474792
phi Residual Mean: 0.00772948114928995
phi Residual Max: 0.8514936026744808
End

FindFeasibleDesign Iter:  8
DesignVars:  [9.92514783186296]
Constraints:  [1.4230124086267824]
Residual Norm:  0.05132506091547843
Setting up primal boundary conditions based on pyOptions: 
Setting primal boundary conditions...
Setting U = (9.850307610190676 1.723786525245991 0) at inout
Setting primal boundary conditions...
Setting p = 0 at inout
Setting primal boundary conditions...
Setting nuTilda = 4.5e-05 at inout
Setting nut wall BC for wing. BCType=nutUSpaldingWallFunction
Running Primal Solver 018
Previous solution time 2 found and deleted.
No finite volume options present

Starting time loop

Checking mesh quality for time = 0
    Overall domain bounding box (-10.50030040740969 -10.1806001663208 0) (11.48330020904541 10.07929992675781 1)
    Mesh has 3 geometric (non-empty/wedge) directions 3{1}
    Mesh has 3 solution (non-empty) directions 3{1}
    Boundary openness (-4.656552971584797e-18 -3.4049361324016e-18 -5.638657976430435e-17) OK.
    Max cell openness = 2.641590909001111e-16 OK.
    Max aspect ratio = 4693.812948398494 OK.
    Minimum face area = 5.172558033806878e-07. Maximum face area = 1.111273686869279.  Face area magnitudes OK.
    Min volume = 5.172558033807119e-07. Max volume = 1.096460301865651.  Total volume = 445.2614370986274.  Cell volumes OK.
    Mesh non-orthogonality Max: 50.0489622255358 average: 5.064030982072487
    Non-orthogonality check OK.
    Face pyramids OK.
    Max skewness = 1.836065919227569 OK.
    Coupled point location match (average 0) OK.

Mesh OK.

Time = 1

U Initial residual: (0.0022689322275455 0.002387861360053787 0.002417769944795028)
U   Final residual: (0.0001754550279646963 0.0001739132768749142 0.0001725721426610768)
p Initial residual: 0.003848397988396167
p   Final residual: 0.0002472546471228494
Time step continuity errors : sum local = 0.0001484439897721053
                                 global = 9.521904734176848e-08
                             cumulative = 4.862395965146657e-05
nuTilda Initial residual: 0.007464078082787846
nuTilda   Final residual: 0.0005773186169012773
Bounding nuTilda>1e-16
yPlus min: 1.211711563247843 max: 33.50181679779254 mean: 13.40023498968886
CD-part1-force: 0.1167837312581035
CL-part1-force: 1.425482098215845
ExecutionTime = 6.81 s  ClockTime = 3 s

Time = 2
Minimal residual 0.007511511856198531 satisfied the prescribed tolerance 0.01

CD-part1-force: 0.1155482375086431
CL-part1-force: 1.429894176648427
Printing Primal Residual Statistics.
U Residual Norm2: (10889.42801459996 6444.24708263074 1.862280245098006e-11)
U Residual Mean: (44.13290099808736 17.9192061483861 9.064098577431003e-14)
U Residual Max: (1779.385103672052 1275.309480897444 1.626889479426925e-12)
p Residual Norm2: 1763.967335358482
p Residual Mean: 2.679511192417396
p Residual Max: 602.3975989720869
nuTilda Residual Norm2: 11.95887689458808
nuTilda Residual Mean: 0.02241869818761355
nuTilda Residual Max: 1.643017140553467
phi Residual Norm2: 6.280459749778251
phi Residual Mean: 0.007846226171239262
phi Residual Max: 0.8863553282970433
End

Setting up primal boundary conditions based on pyOptions: 
Setting primal boundary conditions...
Setting U = (9.850000969604089 1.725537857828247 0) at inout
Setting primal boundary conditions...
Setting p = 0 at inout
Setting primal boundary conditions...
Setting nuTilda = 4.5e-05 at inout
Setting nut wall BC for wing. BCType=nutUSpaldingWallFunction
Running Primal Solver 019
Previous solution time 2 found and deleted.
No finite volume options present

Starting time loop

Checking mesh quality for time = 0
    Overall domain bounding box (-10.50030040740969 -10.1806001663208 0) (11.48330020904541 10.07929992675781 1)
    Mesh has 3 geometric (non-empty/wedge) directions 3{1}
    Mesh has 3 solution (non-empty) directions 3{1}
    Boundary openness (-4.656552971584797e-18 -3.4049361324016e-18 -5.638657976430435e-17) OK.
    Max cell openness = 2.641590909001111e-16 OK.
    Max aspect ratio = 4693.812948398494 OK.
    Minimum face area = 5.172558033806878e-07. Maximum face area = 1.111273686869279.  Face area magnitudes OK.
    Min volume = 5.172558033807119e-07. Max volume = 1.096460301865651.  Total volume = 445.2614370986274.  Cell volumes OK.
    Mesh non-orthogonality Max: 50.0489622255358 average: 5.064030982072487
    Non-orthogonality check OK.
    Face pyramids OK.
    Max skewness = 1.836065919227569 OK.
    Coupled point location match (average 0) OK.

Mesh OK.

Time = 1

U Initial residual: (0.00234447843327062 0.002535176150354395 0.002286097338819728)
U   Final residual: (0.0001810068423939997 0.0001840738439840391 0.000162888985467644)
p Initial residual: 0.003647160732866152
p   Final residual: 0.000328983990059119
Time step continuity errors : sum local = 0.0001991500975718771
                                 global = -5.706042300410521e-07
                             cumulative = 4.805335542142552e-05
nuTilda Initial residual: 0.007540555727216213
nuTilda   Final residual: 0.0005926669495605273
Bounding nuTilda>1e-16
yPlus min: 1.598124219588235 max: 34.52538783302786 mean: 13.38860742460059
CD-part1-force: 0.1145697501988883
CL-part1-force: 1.435686866883653
ExecutionTime = 6.93 s  ClockTime = 3 s

Time = 2
Minimal residual 0.00758869627620519 satisfied the prescribed tolerance 0.01

CD-part1-force: 0.1134412451766832
CL-part1-force: 1.444749912041277
Printing Primal Residual Statistics.
U Residual Norm2: (10929.99360465485 6116.429743816646 1.874512391363824e-11)
U Residual Mean: (44.60706685209409 17.13601738890622 9.087032774240001e-14)
U Residual Max: (1769.462410393189 1510.181904712956 1.711092229561197e-12)
p Residual Norm2: 1615.380616435329
p Residual Mean: 2.573205391645858
p Residual Max: 577.0102395315889
nuTilda Residual Norm2: 12.29904694863041
nuTilda Residual Mean: 0.02308299708315907
nuTilda Residual Max: 1.730287508496137
phi Residual Norm2: 6.240234583934034
phi Residual Mean: 0.007892721033666613
phi Residual Max: 0.8614518235132705
End

FindFeasibleDesign Iter:  9
DesignVars:  [9.936334876884743]
Constraints:  [1.4447499760539686]
Residual Norm:  0.03683334929735427
Setting up primal boundary conditions based on pyOptions: 
Setting primal boundary conditions...
Setting U = (9.849970851786864 1.725709772513668 0) at inout
Setting primal boundary conditions...
Setting p = 0 at inout
Setting primal boundary conditions...
Setting nuTilda = 4.5e-05 at inout
Setting nut wall BC for wing. BCType=nutUSpaldingWallFunction
Running Primal Solver 020
Previous solution time 2 found and deleted.
No finite volume options present

Starting time loop

Checking mesh quality for time = 0
    Overall domain bounding box (-10.50030040740969 -10.1806001663208 0) (11.48330020904541 10.07929992675781 1)
    Mesh has 3 geometric (non-empty/wedge) directions 3{1}
    Mesh has 3 solution (non-empty) directions 3{1}
    Boundary openness (-4.656552971584797e-18 -3.4049361324016e-18 -5.638657976430435e-17) OK.
    Max cell openness = 2.641590909001111e-16 OK.
    Max aspect ratio = 4693.812948398494 OK.
    Minimum face area = 5.172558033806878e-07. Maximum face area = 1.111273686869279.  Face area magnitudes OK.
    Min volume = 5.172558033807119e-07. Max volume = 1.096460301865651.  Total volume = 445.2614370986274.  Cell volumes OK.
    Mesh non-orthogonality Max: 50.0489622255358 average: 5.064030982072487
    Non-orthogonality check OK.
    Face pyramids OK.
    Max skewness = 1.836065919227569 OK.
    Coupled point location match (average 0) OK.

Mesh OK.

Time = 1

U Initial residual: (0.002435559263763847 0.002371727914769447 0.002418957450303645)
U   Final residual: (0.0001891645632509914 0.0001809844280753149 0.0001729823082897913)
p Initial residual: 0.003536179040525402
p   Final residual: 0.0002407514868093864
Time step continuity errors : sum local = 0.0001474581607386773
                                 global = -6.300001137315782e-06
                             cumulative = 4.175335428410974e-05
nuTilda Initial residual: 0.007654725570793626
nuTilda   Final residual: 0.0006089646592417857
Bounding nuTilda>1e-16
[...]
        0.1083881512908725,  0.1211695566635722,  0.1211695566635722,
        0.1496782133582603,  0.1496782133582603, -0.0564282472920964,
       -0.0564282472920964,  0.0781661053538917,  0.0781661053538917,
       -0.0586824767428367, -0.0586824767428367])}

Setting up primal boundary conditions based on pyOptions: 
Setting primal boundary conditions...
Setting U = (9.854440919607697 1.699998282928953 0) at inout
Setting primal boundary conditions...
Setting p = 0 at inout
Setting primal boundary conditions...
Setting nuTilda = 4.5e-05 at inout
Setting nut wall BC for wing. BCType=nutUSpaldingWallFunction
Running Primal Solver 334
Previous solution time 16 found and deleted.
No finite volume options present

Starting time loop

Checking mesh quality for time = 0
    Overall domain bounding box (-11.23447959899117 -10.94174898377162 0) (12.10993558685238 10.82025278864379 1)
    Mesh has 3 geometric (non-empty/wedge) directions 3{1}
    Mesh has 3 solution (non-empty) directions 3{1}
    Boundary openness (-2.047961682359582e-18 -1.118919462216328e-18 6.022831278069549e-16) OK.
    Max cell openness = 3.202918214421544e-16 OK.
    Max aspect ratio = 4666.678863627737 OK.
    Minimum face area = 5.202633852329968e-07. Maximum face area = 1.126097483894808.  Face area magnitudes OK.
    Min volume = 5.202633855635776e-07. Max volume = 1.124577926807929.  Total volume = 441.3773813644074.  Cell volumes OK.
    Mesh non-orthogonality Max: 84.97938967329677 average: 6.558841964541577
   *Number of severely non-orthogonal (> 75 degrees) faces: 1.
    Non-orthogonality check OK.
  <<Writing 1 non-orthogonal faces to set nonOrthoFaces
    Face pyramids OK.
    Max skewness = 2.320674111464479 OK.
    Coupled point location match (average 0) OK.

Mesh OK.

Time = 1

U Initial residual: (0.00226383855117024 0.005149759559664249 0.006145902980696788)
U   Final residual: (0.00017303830673649 0.0003911100875384427 0.0005431305448229574)
p Initial residual: 0.01305432750585425
p   Final residual: 0.0008305689841093901
Time step continuity errors : sum local = 0.0004421948237274135
                                 global = 7.968778238948579e-06
                             cumulative = -0.0002815034121542891
nuTilda Initial residual: 0.00169328855605998
nuTilda   Final residual: 0.0001039031030580316
Bounding nuTilda>1e-16
yPlus min: 1.239477265285011 max: 27.65428892908974 mean: 12.6423307926802
CD-part1-force: -0.01368064130122931
CL-part1-force: 1.70585696299811
ExecutionTime = 1286.22 s  ClockTime = 1282 s

Time = 10
Minimal residual 0.008842882732591683 satisfied the prescribed tolerance 0.01

CD-part1-force: 0.09010600919722274
CL-part1-force: 1.354678393803089
Printing Primal Residual Statistics.
U Residual Norm2: (4868.640405468784 5189.22242326203 22.74682452915777)
U Residual Mean: (25.44336575987722 21.51278753985801 0.1266811883689949)
U Residual Max: (595.8460019608773 1405.295093283804 1.883653545748953)
p Residual Norm2: 1815.025501289354
p Residual Mean: 3.405202853383881
p Residual Max: 1013.083307947222
nuTilda Residual Norm2: 1.856861007273735
nuTilda Residual Mean: 0.003267257568005424
nuTilda Residual Max: 0.4219052180453763
phi Residual Norm2: 4.405585861584385
phi Residual Mean: 0.008860483992890531
phi Residual Max: 0.3932709244402754
End

Nonlinear constraints
{'cruise.aero_post.functionals.CL': array([1.3546784112749952])}

Objectives
{'cruise.aero_post.functionals.CD': array([0.0901061095748843])}

Driver debug print for iter coord: rank0:pyOptSparse_IPOPT|314
--------------------------------------------------------------
Design Vars
{'dvs.aoa': array([9.788634107628031]),
 'dvs.shape': array([-0.2515673333867423, -0.2515673333867423,  0.0940698859057497,
        0.0940698859057497, -0.0667582870574269, -0.0667582870574269,
       -0.1075020698169235, -0.1075020698169235,  0.10714936548605  ,
        0.10714936548605  ,  0.1147220487398076,  0.1147220487398076,
        0.1513966082615653,  0.1513966082615653, -0.0579593227711839,
       -0.0579593227711839,  0.0751310805850284,  0.0751310805850284,
       -0.0586384042975621, -0.0586384042975621])}

Setting up primal boundary conditions based on pyOptions: 
Setting primal boundary conditions...
Setting U = (9.854416439349599 1.7001401824192 0) at inout
Setting primal boundary conditions...
Setting p = 0 at inout
Setting primal boundary conditions...
Setting nuTilda = 4.5e-05 at inout
Setting nut wall BC for wing. BCType=nutUSpaldingWallFunction
Running Primal Solver 335
Previous solution time 10 found and deleted.
No finite volume options present

Starting time loop

Checking mesh quality for time = 0
    Overall domain bounding box (-11.18451445832969 -10.89298097399113 0) (12.07110722568757 10.77014859749178 1)
    Mesh has 3 geometric (non-empty/wedge) directions 3{1}
    Mesh has 3 solution (non-empty) directions 3{1}
    Boundary openness (6.355049894258123e-18 -5.040679233825206e-18 -3.042665795175933e-16) OK.
    Max cell openness = 3.942856090905814e-16 OK.
    Max aspect ratio = 4683.990629495646 OK.
    Minimum face area = 5.183405547415054e-07. Maximum face area = 1.122750955378411.  Face area magnitudes OK.
    Min volume = 5.183405550373876e-07. Max volume = 1.121303048772554.  Total volume = 441.8279978124638.  Cell volumes OK.
    Mesh non-orthogonality Max: 87.13898925982116 average: 6.500451082994511
   *Number of severely non-orthogonal (> 75 degrees) faces: 1.
    Non-orthogonality check OK.
  <<Writing 1 non-orthogonal faces to set nonOrthoFaces
    Face pyramids OK.
    Max skewness = 2.322880982957386 OK.
    Coupled point location match (average 0) OK.

Mesh OK.

Time = 1

U Initial residual: (0.002178286708735014 0.005689059212364215 0.004795524147082082)
U   Final residual: (0.0001717058487951773 0.000444371943095192 0.000386814161104067)
p Initial residual: 0.01096709030440497
p   Final residual: 0.0007999596394783083
Time step continuity errors : sum local = 0.0004200176563206223
                                 global = 8.196173978181959e-06
                             cumulative = -0.0002733072381761071
nuTilda Initial residual: 0.0017094223702382
nuTilda   Final residual: 0.0001149365190572081
Bounding nuTilda>1e-16
yPlus min: 1.073302592848625 max: 27.04483711371012 mean: 12.62744500787145
CD-part1-force: 0.05113697446189575
CL-part1-force: 1.479771020559301
ExecutionTime = 1286.41 s  ClockTime = 1282 s

Time = 2
Minimal residual 0.00920484386179969 satisfied the prescribed tolerance 0.01

CD-part1-force: 0.04884676321445044
CL-part1-force: 1.49605711325433
Printing Primal Residual Statistics.
U Residual Norm2: (7018.295646363853 6955.279232552782 22.55022281465407)
U Residual Mean: (35.69573865725999 31.75736462335827 0.1275704208103494)
U Residual Max: (791.6648429323407 771.3781729188274 1.613627714034735)
p Residual Norm2: 1623.528818080126
p Residual Mean: 3.33388091363212
p Residual Max: 583.7520817097101
nuTilda Residual Norm2: 1.93523747345381
nuTilda Residual Mean: 0.003392736704975931
nuTilda Residual Max: 0.4339518348129031
phi Residual Norm2: 4.190919961302337
phi Residual Mean: 0.008375625750045159
phi Residual Max: 0.4227691664350675
End

Nonlinear constraints
{'cruise.aero_post.functionals.CL': array([1.496057210540179])}

Objectives
{'cruise.aero_post.functionals.CD': array([0.0488470947955006])}

Computing partials for  ['CD']
Calculating dFdW using reverse-mode AD
Calculating dFdXv using reverse-mode AD
Moving time 2 to 0.0055
Driver total derivatives for iteration: 55
---------------------------------------------
Calculating [dRdW]^T * Psi using reverse-mode AD
Solving Linear Equation... 1283 s
Main iteration 0 KSP Residual norm 2.593687250728e-02 1283 s
Main iteration 100 KSP Residual norm 1.010336795652e-03 1288 s
Main iteration 200 KSP Residual norm 2.300051035397e-06 1293 s
Main iteration 279 KSP Residual norm 2.515073780376e-08 1298 s 
Total iterations 279
Solving Linear Equation... Completed! 1298 s
Residual tolerance satisfied, solution finished!
Calculating [dRdAOA]^T * Psi using reverse-mode AD
Calculating [dRdXv]^T * Psi using reverse-mode AD
Computing partials for  ['CL']
Calculating dFdW using reverse-mode AD
Calculating dFdXv using reverse-mode AD
Latest solution time 0.0055 less than 1, not renamed.
Calculating [dRdW]^T * Psi using reverse-mode AD
Solving Linear Equation... 1299 s
Main iteration 0 KSP Residual norm 7.976296683296e-02 1299 s
Main iteration 100 KSP Residual norm 6.086461103835e-03 1304 s
Main iteration 200 KSP Residual norm 1.118867218043e-05 1309 s
Main iteration 295 KSP Residual norm 7.638911302753e-08 1315 s 
Total iterations 295
Solving Linear Equation... Completed! 1315 s
Residual tolerance satisfied, solution finished!
Calculating [dRdAOA]^T * Psi using reverse-mode AD
Calculating [dRdXv]^T * Psi using reverse-mode AD
  53  4.8847095e-02 3.94e-03 2.77e-01 -11.0 1.09e-01    -  1.00e+00 1.25e-01h  4
Driver debug print for iter coord: rank0:pyOptSparse_IPOPT|315
--------------------------------------------------------------
Design Vars
{'dvs.aoa': array([9.77937928526979]),
 'dvs.shape': array([-0.4004915012198367, -0.4004915012198367, -0.0075185203889061,
       -0.0075185203889061, -0.0504870935759171, -0.0504870935759171,
        0.0041041640819858,  0.0041041640819858,  0.1218838558799412,
        0.1218838558799412,  0.1879627503058654,  0.1879627503058654,
        0.140343845762044 ,  0.140343845762044 , -0.0470877520512479,
       -0.0470877520512479,  0.1057437949450387,  0.1057437949450387,
       -0.0544099720867443, -0.0544099720867443])}

Setting up primal boundary conditions based on pyOptions: 
Setting primal boundary conditions...
Setting U = (9.854690929542947 1.698548404722088 0) at inout
Setting primal boundary conditions...
Setting p = 0 at inout
Setting primal boundary conditions...
Setting nuTilda = 4.5e-05 at inout
Setting nut wall BC for wing. BCType=nutUSpaldingWallFunction
Running Primal Solver 336
Previous solution time 2 not found and nothing deleted.
No finite volume options present

Starting time loop

Checking mesh quality for time = 0
    Overall domain bounding box (-11.58710197446375 -11.28216032538746 0) (12.36093685268305 11.18199089128393 1)
    Mesh has 3 geometric (non-empty/wedge) directions 3{1}
    Mesh has 3 solution (non-empty) directions 3{1}
    Boundary openness (-9.453315268186866e-18 3.939601318125764e-19 -1.518302981025541e-16) OK.
    Max cell openness = 3.77111807322908e-16 OK.
    Max aspect ratio = 4510.972881469635 OK.
    Minimum face area = 5.382210312521135e-07. Maximum face area = 1.15057366326498.  Face area magnitudes OK.
    Min volume = 5.382210318694147e-07. Max volume = 1.146877557703143.  Total volume = 432.2434436099713.  Cell volumes OK.
    Mesh non-orthogonality Max: 68.9209260423831 average: 8.065323178299074
    Non-orthogonality check OK.
    Face pyramids OK.
    Max skewness = 2.326249490712143 OK.
    Coupled point location match (average 0) OK.

Mesh OK.

Time = 1

U Initial residual: (0.005138697948302018 0.009740810617733835 0.01899836912833478)
U   Final residual: (0.0004209842777409354 0.000790519254465805 0.001706275519082463)
p Initial residual: 0.03479605139995876
p   Final residual: 0.002611399818457494
Time step continuity errors : sum local = 0.001645543264081703
                                 global = 2.202178231044885e-05
                             cumulative = -0.0002512854558656582
nuTilda Initial residual: 0.002788952246655913
nuTilda   Final residual: 0.0002626172831481172
Bounding nuTilda>1e-16
yPlus min: 1.287981931890252 max: 27.49114266006773 mean: 12.63299495007582
CD-part1-force: 1.227761879618925
CL-part1-force: -0.3270417363518552
ExecutionTime = 1320.02 s  ClockTime = 1316 s

Time = 99
Minimal residual 0.00992013934005667 satisfied the prescribed tolerance 0.01

CD-part1-force: 0.08521481541633932
CL-part1-force: 1.212854909918588
Printing Primal Residual Statistics.
U Residual Norm2: (4763.442608217867 3743.639559130016 12.41234621248325)
U Residual Mean: (18.9837183401535 9.53578362748044 0.07046011684856698)
U Residual Max: (1013.343627652867 816.8047476768435 1.089757337312588)
p Residual Norm2: 1580.08654104671
p Residual Mean: 2.207844488726815
p Residual Max: 581.672676045544
nuTilda Residual Norm2: 16.42092247869214
nuTilda Residual Mean: 0.03912976852836546
nuTilda Residual Max: 2.00019914951887
phi Residual Norm2: 7.593520822776825
phi Residual Mean: 0.006040702205767403
phi Residual Max: 1.541238619983667
End

Nonlinear constraints
{'cruise.aero_post.functionals.CL': array([1.2128549042157286])}

Objectives
{'cruise.aero_post.functionals.CD': array([0.0852148353470694])}

Driver debug print for iter coord: rank0:pyOptSparse_IPOPT|316
--------------------------------------------------------------
Design Vars
{'dvs.aoa': array([9.792239911602554]),
 'dvs.shape': array([-0.2276516288010725, -0.2276516288010725,  0.08038792686935  ,
        0.08038792686935  , -0.0833841909122566, -0.0833841909122567,
       -0.093202400891824 , -0.093202400891824 ,  0.0973669096084794,
        0.0973669096084794,  0.1132261785365389,  0.1132261785365389,
        0.2155085481236128,  0.2155085481236128, -0.1092750309159824,
       -0.1092750309159825,  0.0094955245925273,  0.0094955245925273,
       -0.0024282645609627, -0.0024282645609627])}

Setting up primal boundary conditions based on pyOptions: 
Setting primal boundary conditions...
Setting U = (9.854309424655325 1.700760348535104 0) at inout
Setting primal boundary conditions...
Setting p = 0 at inout
Setting primal boundary conditions...
Setting nuTilda = 4.5e-05 at inout
Setting nut wall BC for wing. BCType=nutUSpaldingWallFunction
Running Primal Solver 337
Previous solution time 99 found and deleted.
No finite volume options present

Starting time loop

Checking mesh quality for time = 0
    Overall domain bounding box (-10.98113935315187 -10.66638186955432 0) (11.85194589311246 10.54017793009862 1)
    Mesh has 3 geometric (non-empty/wedge) directions 3{1}
    Mesh has 3 solution (non-empty) directions 3{1}
    Boundary openness (-7.435918436224594e-19 -7.442709229317038e-18 6.783729840558878e-16) OK.
 ***High aspect ratio cells found, Max aspect ratio: 6.268439231786827e+97, number of cells 3
  <<Writing 3 cells with high aspect ratio to set highAspectRatioCells
    Minimum face area = 2.738078945049662e-08. Maximum face area = 1.130377468869832.  Face area magnitudes OK.
 ***Zero or negative cell volume detected.  Minimum negative volume: -1.352542064748548e-05, Number of negative volume cells: 2
  <<Writing 2 zero volume cells to set zeroVolumeCells
    Mesh non-orthogonality Max: 130.0515178429128 average: 6.835005057024728
   *Number of severely non-orthogonal (> 75 degrees) faces: 3.
 ***Number of non-orthogonality errors: 5.
  <<Writing 8 non-orthogonal faces to set nonOrthoFaces
 ***Error in face pyramids: 16 faces are incorrectly oriented.
  <<Writing 13 faces with incorrect orientation to set wrongOrientedFaces
    Max skewness = 2.691487075091873 OK.
    Coupled point location match (average 0) OK.

Failed 4 mesh checks.

Nonlinear constraints
{'cruise.aero_post.functionals.CL': array([1.2128549042157286])}

Objectives
{'cruise.aero_post.functionals.CD': array([0.0852148353470694])}

Warning: SOC step rejected due to evaluation error
Driver debug print for iter coord: rank0:pyOptSparse_IPOPT|317
--------------------------------------------------------------
Design Vars
{'dvs.aoa': array([9.78400669644891]),
 'dvs.shape': array([-0.3260294173032895, -0.3260294173032895,  0.0432756827584218,
        0.0432756827584218, -0.058622690316672 , -0.058622690316672 ,
       -0.0516989528674689, -0.0516989528674689,  0.1145166106829956,
        0.1145166106829956,  0.1513423995228365,  0.1513423995228365,
        0.1458702270118046,  0.1458702270118046, -0.0525235374112159,
       -0.0525235374112159,  0.0904374377650336,  0.0904374377650336,
       -0.0565241881921532, -0.0565241881921532])}

Setting up primal boundary conditions based on pyOptions: 
Setting primal boundary conditions...
Setting U = (9.854553716585682 1.699344299112845 0) at inout
Setting primal boundary conditions...
Setting p = 0 at inout
Setting primal boundary conditions...
Setting nuTilda = 4.5e-05 at inout
Setting nut wall BC for wing. BCType=nutUSpaldingWallFunction
Running Primal Solver 338
Previous solution time 99 not found and nothing deleted.
No finite volume options present

Starting time loop

Checking mesh quality for time = 0
    Overall domain bounding box (-11.4260679200543 -11.1275028576097 0) (12.25232713712886 11.01404471330584 1)
    Mesh has 3 geometric (non-empty/wedge) directions 3{1}
    Mesh has 3 solution (non-empty) directions 3{1}
    Boundary openness (3.546497476598804e-18 -3.481643336025775e-18 -3.421135494034069e-16) OK.
    Max cell openness = 5.355494937630323e-16 OK.
    Max aspect ratio = 4596.464013233898 OK.
    Minimum face area = 5.282106947461786e-07. Maximum face area = 1.14085066893526.  Face area magnitudes OK.
    Min volume = 5.282106952243043e-07. Max volume = 1.138283091744121.  Total volume = 438.1399142609228.  Cell volumes OK.
    Mesh non-orthogonality Max: 77.81879910747858 average: 7.035012147677135
   *Number of severely non-orthogonal (> 75 degrees) faces: 1.
    Non-orthogonality check OK.
  <<Writing 1 non-orthogonal faces to set nonOrthoFaces
    Face pyramids OK.
    Max skewness = 2.325008869924797 OK.
    Coupled point location match (average 0) OK.

Mesh OK.

Time = 1

U Initial residual: (0.001194345597632127 0.003201069415336654 0.004996228095372391)
U   Final residual: (7.12517916197864e-05 0.0003168657113295126 0.0004286810870673475)
p Initial residual: 0.0219526049320602
p   Final residual: 0.001803865668124815
Time step continuity errors : sum local = 0.001357170749757257
                                 global = 2.364512059057155e-05
                             cumulative = -0.0002276403352750867
nuTilda Initial residual: 0.004981896470511642
nuTilda   Final residual: 0.0002932586851549457
Bounding nuTilda>1e-16
yPlus min: 0.8891602197976004 max: 26.00782286761895 mean: 11.85672876789802
CD-part1-force: -0.2330126990320445
CL-part1-force: 1.811443124346725
ExecutionTime = 1320.69 s  ClockTime = 1317 s

Time = 19
Minimal residual 0.008332612876267742 satisfied the prescribed tolerance 0.01

CD-part1-force: 0.04741686547577509
CL-part1-force: 1.237676354254609
Printing Primal Residual Statistics.
U Residual Norm2: (5031.940774500007 4175.343420600995 16.14880879319055)
U Residual Mean: (28.34174404590218 19.39264463514907 0.09128032804746677)
U Residual Max: (582.0857497548815 455.9519616886602 1.435333836658165)
p Residual Norm2: 1441.707799690749
p Residual Mean: 3.419707194607898
p Residual Max: 538.4799974155014
nuTilda Residual Norm2: 15.80098405658495
nuTilda Residual Mean: 0.0553296093715616
nuTilda Residual Max: 1.179938386973635
phi Residual Norm2: 5.984192441196884
phi Residual Mean: 0.008245469241517273
phi Residual Max: 1.005179950838029
End

Nonlinear constraints
{'cruise.aero_post.functionals.CL': array([1.2376763599040015])}

Objectives
{'cruise.aero_post.functionals.CD': array([0.0474169359474136])}

Computing partials for  ['CD']
Calculating dFdW using reverse-mode AD
Calculating dFdXv using reverse-mode AD
Moving time 19 to 0.0056
Driver total derivatives for iteration: 56
---------------------------------------------
Calculating [dRdW]^T * Psi using reverse-mode AD
Solving Linear Equation... 1317 s
Main iteration 0 KSP Residual norm 2.939005571617e-02 1317 s
Main iteration 100 KSP Residual norm 2.686012455797e-02 1322 s
Main iteration 200 KSP Residual norm 2.519762274877e-02 1328 s
Main iteration 300 KSP Residual norm 2.396749343188e-02 1334 s
Main iteration 400 KSP Residual norm 2.311659881692e-02 1341 s
Main iteration 500 KSP Residual norm 2.260735594405e-02 1348 s
Main iteration 600 KSP Residual norm 2.252753150243e-02 1356 s
