 
-------------------------------------------------------------------------------
|                               DAFoam v4.0.1                                 |
-------------------------------------------------------------------------------
 
/*---------------------------------------------------------------------------*\
| =========                 |                                                 |
| \\      /  F ield         | OpenFOAM: The Open Source CFD Toolbox           |
|  \\    /   O peration     | Version:  v1812                                 |
|   \\  /    A nd           | Web:      www.OpenFOAM.com                      |
|    \\/     M anipulation  |                                                 |
\*---------------------------------------------------------------------------*/
Build  : v1812 OPENFOAM=1812
Arch   : "LSB;label=32;scalar=64"
Exec   : decomposePar
Date   : Dec 23 2025
Time   : 06:04:21
Host   : 75d5b7c6b221
PID    : 4787
I/O    : uncollated
Case   : /home/dafoamuser/mount
nProcs : 1
trapFpe: Floating point exception trapping enabled (FOAM_SIGFPE).
fileModificationChecking : Monitoring run-time modified files using timeStampMaster (fileModificationSkew 10)
allowSystemOperations : Allowing user-supplied system call operations

// * * * * * * * * * * * * * * * * * * * * * * * * * * * * * * * * * * * * * //
Create time

Overriding DebugSwitches according to controlDict
    SolverPerformance 0;



Decomposing mesh region0

Create mesh

Calculating distribution of cells
Selecting decompositionMethod scotch [32]

Finished decomposition in 0.1 s

Calculating original mesh data

Distributing cells to processors

Distributing faces to processors

Distributing points to processors

Constructing processor meshes
Overriding DebugSwitches according to controlDict
    SolverPerformance 0;


Processor 0
    Number of cells = 1213
    Number of faces shared with processor 1 = 23
    Number of faces shared with processor 2 = 38
    Number of faces shared with processor 5 = 15
    Number of faces shared with processor 14 = 63
    Number of processor patches = 4
    Number of processor faces = 139
    Number of boundary faces = 2442
Overriding DebugSwitches according to controlDict
    SolverPerformance 0;


Processor 1
    Number of cells = 1236
    Number of faces shared with processor 0 = 23
    Number of faces shared with processor 2 = 39
    Number of faces shared with processor 5 = 2
    Number of faces shared with processor 7 = 36
    Number of processor patches = 4
    Number of processor faces = 100
    Number of boundary faces = 2511
Overriding DebugSwitches according to controlDict
    SolverPerformance 0;


Processor 2
    Number of cells = 1225
    Number of faces shared with processor 0 = 38
    Number of faces shared with processor 1 = 39
    Number of faces shared with processor 3 = 44
    Number of faces shared with processor 18 = 13
    Number of processor patches = 4
    Number of processor faces = 134
    Number of boundary faces = 2526
Overriding DebugSwitches according to controlDict
    SolverPerformance 0;


Processor 3
    Number of cells = 1229
    Number of faces shared with processor 2 = 44
    Number of faces shared with processor 18 = 6
    Number of faces shared with processor 19 = 16
    Number of processor patches = 3
    Number of processor faces = 66
    Number of boundary faces = 2505
Overriding DebugSwitches according to controlDict
    SolverPerformance 0;


Processor 4
    Number of cells = 1229
    Number of faces shared with processor 5 = 23
    Number of faces shared with processor 6 = 22
    Number of faces shared with processor 29 = 15
    Number of faces shared with processor 31 = 14
    Number of processor patches = 4
    Number of processor faces = 74
    Number of boundary faces = 2514
Overriding DebugSwitches according to controlDict
    SolverPerformance 0;


Processor 5
    Number of cells = 1224
    Number of faces shared with processor 0 = 15
    Number of faces shared with processor 1 = 2
    Number of faces shared with processor 4 = 23
    Number of faces shared with processor 6 = 38
    Number of faces shared with processor 7 = 11
    Number of faces shared with processor 10 = 14
    Number of faces shared with processor 14 = 9
    Number of faces shared with processor 28 = 9
    Number of faces shared with processor 29 = 36
    Number of processor patches = 9
    Number of processor faces = 157
    Number of boundary faces = 2448
Overriding DebugSwitches according to controlDict
    SolverPerformance 0;


Processor 6
    Number of cells = 1230
    Number of faces shared with processor 4 = 22
    Number of faces shared with processor 5 = 38
    Number of faces shared with processor 7 = 38
    Number of processor patches = 3
    Number of processor faces = 98
    Number of boundary faces = 2512
Overriding DebugSwitches according to controlDict
    SolverPerformance 0;


Processor 7
    Number of cells = 1236
    Number of faces shared with processor 1 = 36
    Number of faces shared with processor 5 = 11
    Number of faces shared with processor 6 = 38
    Number of processor patches = 3
    Number of processor faces = 85
    Number of boundary faces = 2515
Overriding DebugSwitches according to controlDict
    SolverPerformance 0;


Processor 8
    Number of cells = 1212
    Number of faces shared with processor 9 = 35
    Number of faces shared with processor 10 = 21
    Number of faces shared with processor 11 = 13
    Number of faces shared with processor 20 = 32
    Number of faces shared with processor 21 = 26
    Number of processor patches = 5
    Number of processor faces = 127
    Number of boundary faces = 2473
Overriding DebugSwitches according to controlDict
    SolverPerformance 0;


Processor 9
    Number of cells = 1212
    Number of faces shared with processor 8 = 35
    Number of faces shared with processor 11 = 40
    Number of faces shared with processor 13 = 18
    Number of processor patches = 3
    Number of processor faces = 93
    Number of boundary faces = 2502
Overriding DebugSwitches according to controlDict
    SolverPerformance 0;


Processor 10
    Number of cells = 1212
    Number of faces shared with processor 5 = 14
    Number of faces shared with processor 8 = 21
    Number of faces shared with processor 11 = 40
    Number of faces shared with processor 13 = 7
    Number of faces shared with processor 14 = 13
    Number of faces shared with processor 20 = 17
    Number of faces shared with processor 28 = 22
    Number of processor patches = 7
    Number of processor faces = 134
    Number of boundary faces = 2424
Overriding DebugSwitches according to controlDict
    SolverPerformance 0;


Processor 11
    Number of cells = 1212
    Number of faces shared with processor 8 = 13
    Number of faces shared with processor 9 = 40
    Number of faces shared with processor 10 = 40
    Number of faces shared with processor 13 = 43
    Number of processor patches = 4
    Number of processor faces = 136
    Number of boundary faces = 2424
Overriding DebugSwitches according to controlDict
    SolverPerformance 0;


Processor 12
    Number of cells = 1220
    Number of faces shared with processor 13 = 63
    Number of faces shared with processor 14 = 15
    Number of faces shared with processor 15 = 49
    Number of processor patches = 3
    Number of processor faces = 127
    Number of boundary faces = 2489
Overriding DebugSwitches according to controlDict
    SolverPerformance 0;


Processor 13
    Number of cells = 1217
    Number of faces shared with processor 9 = 18
    Number of faces shared with processor 10 = 7
    Number of faces shared with processor 11 = 43
    Number of faces shared with processor 12 = 63
    Number of faces shared with processor 14 = 6
    Number of processor patches = 5
    Number of processor faces = 137
    Number of boundary faces = 2471
Overriding DebugSwitches according to controlDict
    SolverPerformance 0;


Processor 14
    Number of cells = 1212
    Number of faces shared with processor 0 = 63
    Number of faces shared with processor 5 = 9
    Number of faces shared with processor 10 = 13
    Number of faces shared with processor 12 = 15
    Number of faces shared with processor 13 = 6
    Number of faces shared with processor 15 = 51
    Number of processor patches = 6
    Number of processor faces = 157
    Number of boundary faces = 2457
Overriding DebugSwitches according to controlDict
    SolverPerformance 0;


Processor 15
    Number of cells = 1215
    Number of faces shared with processor 12 = 49
    Number of faces shared with processor 14 = 51
    Number of processor patches = 2
    Number of processor faces = 100
    Number of boundary faces = 2486
Overriding DebugSwitches according to controlDict
    SolverPerformance 0;


Processor 16
    Number of cells = 1236
    Number of faces shared with processor 17 = 41
    Number of faces shared with processor 18 = 7
    Number of faces shared with processor 19 = 30
    Number of faces shared with processor 20 = 26
    Number of faces shared with processor 22 = 11
    Number of faces shared with processor 25 = 16
    Number of faces shared with processor 26 = 7
    Number of faces shared with processor 28 = 10
    Number of processor patches = 8
    Number of processor faces = 148
    Number of boundary faces = 2472
Overriding DebugSwitches according to controlDict
    SolverPerformance 0;


Processor 17
    Number of cells = 1236
    Number of faces shared with processor 16 = 41
    Number of faces shared with processor 19 = 28
    Number of faces shared with processor 26 = 39
    Number of processor patches = 3
    Number of processor faces = 108
    Number of boundary faces = 2511
Overriding DebugSwitches according to controlDict
    SolverPerformance 0;


Processor 18
    Number of cells = 1223
    Number of faces shared with processor 2 = 13
    Number of faces shared with processor 3 = 6
    Number of faces shared with processor 16 = 7
    Number of faces shared with processor 19 = 47
    Number of faces shared with processor 22 = 58
    Number of processor patches = 5
    Number of processor faces = 131
    Number of boundary faces = 2481
Overriding DebugSwitches according to controlDict
    SolverPerformance 0;


Processor 19
    Number of cells = 1236
    Number of faces shared with processor 3 = 16
    Number of faces shared with processor 16 = 30
    Number of faces shared with processor 17 = 28
    Number of faces shared with processor 18 = 47
    Number of processor patches = 4
    Number of processor faces = 121
    Number of boundary faces = 2506
Overriding DebugSwitches according to controlDict
    SolverPerformance 0;


Processor 20
    Number of cells = 1221
    Number of faces shared with processor 8 = 32
    Number of faces shared with processor 10 = 17
    Number of faces shared with processor 16 = 26
    Number of faces shared with processor 21 = 44
    Number of faces shared with processor 22 = 6
    Number of faces shared with processor 23 = 6
    Number of faces shared with processor 28 = 17
    Number of processor patches = 7
    Number of processor faces = 148
    Number of boundary faces = 2442
Overriding DebugSwitches according to controlDict
    SolverPerformance 0;


Processor 21
    Number of cells = 1231
    Number of faces shared with processor 8 = 26
    Number of faces shared with processor 20 = 44
    Number of faces shared with processor 23 = 59
    Number of processor patches = 3
    Number of processor faces = 129
    Number of boundary faces = 2503
Overriding DebugSwitches according to controlDict
    SolverPerformance 0;


Processor 22
    Number of cells = 1217
    Number of faces shared with processor 16 = 11
    Number of faces shared with processor 18 = 58
    Number of faces shared with processor 20 = 6
    Number of faces shared with processor 23 = 62
    Number of processor patches = 4
    Number of processor faces = 137
    Number of boundary faces = 2479
Overriding DebugSwitches according to controlDict
    SolverPerformance 0;


Processor 23
    Number of cells = 1212
    Number of faces shared with processor 20 = 6
    Number of faces shared with processor 21 = 59
    Number of faces shared with processor 22 = 62
    Number of processor patches = 3
    Number of processor faces = 127
    Number of boundary faces = 2449
Overriding DebugSwitches according to controlDict
    SolverPerformance 0;


Processor 24
    Number of cells = 1224
    Number of faces shared with processor 25 = 59
    Number of faces shared with processor 27 = 46
    Number of faces shared with processor 30 = 20
    Number of faces shared with processor 31 = 12
    Number of processor patches = 4
    Number of processor faces = 137
    Number of boundary faces = 2499
Overriding DebugSwitches according to controlDict
    SolverPerformance 0;


Processor 25
    Number of cells = 1234
    Number of faces shared with processor 16 = 16
    Number of faces shared with processor 24 = 59
    Number of faces shared with processor 26 = 7
    Number of faces shared with processor 27 = 7
    Number of faces shared with processor 28 = 4
    Number of faces shared with processor 30 = 52
    Number of processor patches = 6
    Number of processor faces = 145
    Number of boundary faces = 2468
Overriding DebugSwitches according to controlDict
    SolverPerformance 0;


Processor 26
    Number of cells = 1227
    Number of faces shared with processor 16 = 7
    Number of faces shared with processor 17 = 39
    Number of faces shared with processor 25 = 7
    Number of faces shared with processor 27 = 38
    Number of processor patches = 4
    Number of processor faces = 91
    Number of boundary faces = 2492
Overriding DebugSwitches according to controlDict
    SolverPerformance 0;


Processor 27
    Number of cells = 1236
    Number of faces shared with processor 24 = 46
    Number of faces shared with processor 25 = 7
    Number of faces shared with processor 26 = 38
    Number of processor patches = 3
    Number of processor faces = 91
    Number of boundary faces = 2514
Overriding DebugSwitches according to controlDict
    SolverPerformance 0;


Processor 28
    Number of cells = 1229
    Number of faces shared with processor 5 = 9
    Number of faces shared with processor 10 = 22
    Number of faces shared with processor 16 = 10
    Number of faces shared with processor 20 = 17
    Number of faces shared with processor 25 = 4
    Number of faces shared with processor 29 = 32
    Number of faces shared with processor 30 = 14
    Number of processor patches = 7
    Number of processor faces = 108
    Number of boundary faces = 2546
Overriding DebugSwitches according to controlDict
    SolverPerformance 0;


Processor 29
    Number of cells = 1224
    Number of faces shared with processor 4 = 15
    Number of faces shared with processor 5 = 36
    Number of faces shared with processor 28 = 32
    Number of faces shared with processor 30 = 17
    Number of faces shared with processor 31 = 31
    Number of processor patches = 5
    Number of processor faces = 131
    Number of boundary faces = 2448
Overriding DebugSwitches according to controlDict
    SolverPerformance 0;


Processor 30
    Number of cells = 1236
    Number of faces shared with processor 24 = 20
    Number of faces shared with processor 25 = 52
    Number of faces shared with processor 28 = 14
    Number of faces shared with processor 29 = 17
    Number of faces shared with processor 31 = 44
    Number of processor patches = 5
    Number of processor faces = 147
    Number of boundary faces = 2472
Overriding DebugSwitches according to controlDict
    SolverPerformance 0;


Processor 31
    Number of cells = 1236
    Number of faces shared with processor 4 = 14
    Number of faces shared with processor 24 = 12
    Number of faces shared with processor 29 = 31
    Number of faces shared with processor 30 = 44
    Number of processor patches = 4
    Number of processor faces = 101
    Number of boundary faces = 2512

Number of processor faces = 1932
Max number of cells = 1236 (0.9185548071034905% above average 1224.75)
Max number of processor patches = 9 (100% above average 4.5)
Max number of faces between processors = 157 (30.02070393374741% above average 120.75)

Time = 0

Processor 0: field transfer
Overriding DebugSwitches according to controlDict
    SolverPerformance 0;

Processor 1: field transfer
Overriding DebugSwitches according to controlDict
    SolverPerformance 0;

Processor 2: field transfer
Overriding DebugSwitches according to controlDict
    SolverPerformance 0;

Processor 3: field transfer
Overriding DebugSwitches according to controlDict
    SolverPerformance 0;

Processor 4: field transfer
Overriding DebugSwitches according to controlDict
    SolverPerformance 0;

Processor 5: field transfer
Overriding DebugSwitches according to controlDict
    SolverPerformance 0;

Processor 6: field transfer
Overriding DebugSwitches according to controlDict
    SolverPerformance 0;

Processor 7: field transfer
Overriding DebugSwitches according to controlDict
    SolverPerformance 0;

Processor 8: field transfer
Overriding DebugSwitches according to controlDict
    SolverPerformance 0;

Processor 9: field transfer
Overriding DebugSwitches according to controlDict
    SolverPerformance 0;

Processor 10: field transfer
Overriding DebugSwitches according to controlDict
    SolverPerformance 0;

Processor 11: field transfer
Overriding DebugSwitches according to controlDict
    SolverPerformance 0;

Processor 12: field transfer
Overriding DebugSwitches according to controlDict
    SolverPerformance 0;

Processor 13: field transfer
Overriding DebugSwitches according to controlDict
    SolverPerformance 0;

Processor 14: field transfer
Overriding DebugSwitches according to controlDict
    SolverPerformance 0;

Processor 15: field transfer
Overriding DebugSwitches according to controlDict
    SolverPerformance 0;

Processor 16: field transfer
Overriding DebugSwitches according to controlDict
    SolverPerformance 0;

Processor 17: field transfer
Overriding DebugSwitches according to controlDict
    SolverPerformance 0;

Processor 18: field transfer
Overriding DebugSwitches according to controlDict
    SolverPerformance 0;

Processor 19: field transfer
Overriding DebugSwitches according to controlDict
    SolverPerformance 0;

Processor 20: field transfer
Overriding DebugSwitches according to controlDict
    SolverPerformance 0;

Processor 21: field transfer
Overriding DebugSwitches according to controlDict
    SolverPerformance 0;

Processor 22: field transfer
Overriding DebugSwitches according to controlDict
    SolverPerformance 0;

Processor 23: field transfer
Overriding DebugSwitches according to controlDict
    SolverPerformance 0;

Processor 24: field transfer
Overriding DebugSwitches according to controlDict
    SolverPerformance 0;

Processor 25: field transfer
Overriding DebugSwitches according to controlDict
    SolverPerformance 0;

Processor 26: field transfer
Overriding DebugSwitches according to controlDict
    SolverPerformance 0;

Processor 27: field transfer
Overriding DebugSwitches according to controlDict
    SolverPerformance 0;

Processor 28: field transfer
Overriding DebugSwitches according to controlDict
    SolverPerformance 0;

Processor 29: field transfer
Overriding DebugSwitches according to controlDict
    SolverPerformance 0;

Processor 30: field transfer
Overriding DebugSwitches according to controlDict
    SolverPerformance 0;

Processor 31: field transfer
Overriding DebugSwitches according to controlDict
    SolverPerformance 0;


End

I/O    : uncollated
Case   : /home/dafoamuser/mount
nProcs : 32
Hosts  :
(
    (75d5b7c6b221 32)
)
Pstream initialized with:
    floatTransfer      : 0
    nProcsSimpleSum    : 0
    commsType          : nonBlocking
    polling iterations : 0
Create time

Overriding DebugSwitches according to controlDict
    SolverPerformance 0;

Create mesh for time = 0
Initializing mesh and runtime for DASolver
DAOpton initialized 
I/O    : uncollated
Case   : /home/dafoamuser/mount
nProcs : 32
Hosts  :
(
    (75d5b7c6b221 32)
)
Pstream initialized with:
    floatTransfer      : 0
    nProcsSimpleSum    : 0
    commsType          : nonBlocking
    polling iterations : 0
Create time

Overriding DebugSwitches according to controlDict
    SolverPerformance 0;

Create mesh for time = 0
Initializing mesh and runtime for DASolver
DAOpton initialized 
Initializing fields for DASimpleFoam
Create simpleControl.

SIMPLE: no convergence criteria found. Calculations will run for 1000 steps.

Reading field p

Reading field U

Reading/calculating face flux field phi

Creating source term. 
Selecting incompressible transport model Newtonian
Selecting turbulence model type RAS
Selecting RAS turbulence model SpalartAllmaras
Selecting patchDistMethod meshWaveFrozen
No MRF models present

Turbulence model is incompressible
Adjoint States: 
4
(
U volVectorState
nuTilda modelState
phi surfaceScalarState
p volScalarState
)
Global Cells: 39192
Global Faces: 160084
Global Xv: 255234
Undecomposed points: 81150
Global Adjoint States: 356044

SIMPLE: no convergence criteria found. Calculations will run for 1000 steps.

DACheckMesh Thresholds: 
maxNonOrth: 89.90000000000001
maxSkewness: 30
maxAspectRatio: 500000
maxIncorrectlyOrientedFaces: 0
    Adding all faces of patches 2(profile0 profile1) ...
    Found matching patch profile0 with 0 faces.
    Found matching patch profile1 with 16 faces.
    Adding all faces of patches 2(profile0 profile1) ...
    Found matching patch profile0 with 0 faces.
    Found matching patch profile1 with 16 faces.
initState: 
6
(
nuTilda 4.500000000000141e-05
phi 0
U1 0
U2 0
p 0
U0 4.99999999999995
)
Initializing fields for DASimpleFoam
Create simpleControl.

SIMPLE: no convergence criteria found. Calculations will run for 1000 steps.

Reading field p

Reading field U

Reading/calculating face flux field phi

Creating source term. 
Selecting incompressible transport model Newtonian
Selecting turbulence model type RAS
Selecting RAS turbulence model SpalartAllmaras
Selecting patchDistMethod meshWaveFrozen
No MRF models present

Turbulence model is incompressible
Adjoint States: 
4
(
U volVectorState
nuTilda modelState
phi surfaceScalarState
p volScalarState
)
Global Cells: 39192
Global Faces: 160084
Global Xv: 255234
Undecomposed points: 81150
Global Adjoint States: 356044

SIMPLE: no convergence criteria found. Calculations will run for 1000 steps.

DACheckMesh Thresholds: 
maxNonOrth: 89.90000000000001
maxSkewness: 30
maxAspectRatio: 500000
maxIncorrectlyOrientedFaces: 0
    Adding all faces of patches 2(profile0 profile1) ...
    Found matching patch profile0 with 0 faces.
    Found matching patch profile1 with 16 faces.
    Adding all faces of patches 2(profile0 profile1) ...
    Found matching patch profile0 with 0 faces.
    Found matching patch profile1 with 16 faces.
initState: 
6
(
nuTilda 4.500000000000141e-05
phi 0
U1 0
U2 0
p 0
U0 4.99999999999995
)
DAFoam option dictionary: 
{
    solverName      DASimpleFoam;
    primalMinResTol 0.0001;
    primalBC
    {
        U0
        {
            variable        U;
            patches         1 ( inout );
            value           3 ( 5 0 0 );
        }
        p0
        {
            variable        p;
            patches         1 ( inout );
            value           1 ( 0 );
        }
        nuTilda0
        {
            variable        nuTilda;
            patches         1 ( inout );
            value           1 ( 4.5e-05 );
        }
        useWallFunction 1;
    }
    normalizeStates
    {
        U               5;
        p               12.5;
        nuTilda         0.00045;
        phi             1;
    }
    function
    {
        CD
        {
            type            force;
            source          patchToFace;
            patches         2 ( profile0 profile1 );
            directionMode   parallelToFlow;
            patchVelocityInputName patchV;
            scale           0.4;
        }
        CL
        {
            type            force;
            source          patchToFace;
            patches         2 ( profile0 profile1 );
            directionMode   normalToFlow;
            patchVelocityInputName patchV;
            scale           0.4;
        }
        skewness
        {
            type            meshQualityKS;
            source          allCells;
            coeffKS         20;
            metric          faceSkewness;
            scale           1;
        }
        nonOrtho
        {
            type            meshQualityKS;
            source          allCells;
            coeffKS         1;
            metric          nonOrthoAngle;
            scale           1;
        }
    }
    inputInfo
    {
        aero_vol_coords
        {
            type            volCoord;
            components      2 ( solver function );
        }
        patchV
        {
            type            patchVelocity;
            patches         1 ( inout );
            flowAxis        x;
            normalAxis      y;
            components      2 ( solver function );
        }
    }
    outputInfo
    {
    }
    designSurfaces  2 ( profile0 profile1 );
    fvSource
    {
    }
    adjEqnSolMethod Krylov;
    dynamicMesh
    {
        active          0;
        mode            rotation;
        center          3 ( 0.25 0 0 );
        axis            z;
        omega           0.1;
    }
    primalVarBounds
    {
        UMax            1000;
        UMin            -1000;
        pMax            50000;
        pMin            -50000;
        p_rghMax        50000;
        p_rghMin        -50000;
        eMax            500000;
        eMin            100000;
        TMax            1000;
        TMin            100;
        hMax            500000;
        hMin            100000;
        DMax            1e+16;
        DMin            -1e+16;
        rhoMax          5;
        rhoMin          0.2;
        nuTildaMax      1e+16;
        nuTildaMin      1e-16;
        kMax            1e+16;
        kMin            1e-16;
        omegaMax        1e+16;
        omegaMin        1e-16;
        epsilonMax      1e+16;
        epsilonMin      1e-16;
        ReThetatMax     1e+16;
        ReThetatMin     1e-16;
        gammaIntMax     1e+16;
        gammaIntMin     1e-16;
    }
    discipline      aero;
    adjPartDerivFDStep
    {
        State           1e-06;
    }
    transonicPCOption -1;
    unsteadyAdjoint
    {
        mode            None;
        PCMatPrecomputeInterval 100;
        PCMatUpdateInterval 1;
        reduceIO        1;
        additionalOutput 1 ( None );
        readZeroFields  1;
    }
    adjPCLag        10000;
    useAD
    {
        mode            reverse;
        dvName          None;
        seedIndex       -9999;
    }
    useConstrainHbyA 1;
    regressionModel
    {
        active          0;
    }
    useMeanStates   0;
    solveLinearFunctionName None;
    printDAOptions  1;
    debug           0;
    writeJacobians  1 ( None );
    printInterval   100;
    printIntervalUnsteady 1;
    primalMinResTolDiff 100;
    adjUseColoring  1;
    adjEqnOption
    {
        globalPCIters   0;
        asmOverlap      1;
        localPCIters    1;
        jacMatReOrdering rcm;
        pcFillLevel     1;
        gmresMaxIters   2000;
        gmresRestart    2000;
        gmresRelTol     1e-06;
        gmresAbsTol     1e-14;
        gmresTolDiff    100;
        useNonZeroInitGuess 0;
        useMGSO         0;
        printInfo       1;
        fpMaxIters      1000;
        fpRelTol        1e-06;
        fpMinResTolDiff 100;
        fpPCUpwind      0;
        dynAdjustTol    0;
    }
    normalizeResiduals 10 ( URes pRes p_rghRes nuTildaRes phiRes TRes DRes kRes omegaRes epsilonRes );
    maxResConLv4JacPCMat
    {
        pRes            2;
        phiRes          1;
        URes            2;
        TRes            2;
        nuTildaRes      2;
        kRes            2;
        epsilonRes      2;
        omegaRes        2;
        p_rghRes        2;
        DRes            2;
        gammaIntRes     2;
        ReThetatRes     2;
    }
    jacLowerBounds
    {
        dRdW            1e-30;
        dRdWPC          1e-30;
    }
    maxTractionBCIters 100;
    decomposeParDict
    {
        method          scotch;
        simpleCoeffs
        {
            n               3 ( 2 2 1 );
            delta           0.001;
        }
        preservePatches 1 ( None );
        singleProcessorFaceSets 1 ( None );
        args            1 ( None );
    }
    adjStateOrdering state;
    checkMeshThreshold
    {
        maxAspectRatio  500000;
        maxNonOrth      89.90000000000001;
        maxSkewness     30;
        maxIncorrectlyOrientedFaces 0;
    }
    writeSensMap    1 ( NONE );
    writeDeformedFFDs 0;
    writeDeformedConstraints 0;
    writeAdjointFields 0;
    maxCorrectBCCalls 2;
    writeMinorIterations 0;
    primalMinIters  1;
    tensorflow
    {
        active          0;
    }
    wallDistanceMethod default;
    unsteadyCompOutput
    {
    }
}

Init solver done! ElapsedClockTime 1.000000 s
Init solver done! ElapsedCpuTime 0.430000 s
Setting up primal boundary conditions based on pyOptions: 
Setting primal boundary conditions...
Setting U = (5 0 0) at inout
Setting primal boundary conditions...
Setting p = 0 at inout
Setting primal boundary conditions...
Setting nuTilda = 4.5e-05 at inout
Setting nut wall BC for profile0. BCType=nutUSpaldingWallFunction
Setting nut wall BC for profile1. BCType=nutUSpaldingWallFunction
Reading OpenFOAM mesh information...
I/O    : uncollated
Case   : /home/dafoamuser/mount
nProcs : 32
Hosts  :
(
    (75d5b7c6b221 32)
)
Pstream initialized with:
    floatTransfer      : 0
    nProcsSimpleSum    : 0
    commsType          : nonBlocking
    polling iterations : 0
Reading the OpenFOAM mesh..
Overriding DebugSwitches according to controlDict
    SolverPerformance 0;

Checking if we need to compress the mesh files
Checking if we need to compress the mesh files
Finalising parallel run
I/O    : uncollated
pyDAFoam initialization done!
+----------------------------------------+
|          All IDWarp Options:           |
+----------------------------------------+
{'LdefFact': 1.0,
 'aExp': 3.0,
 'alpha': 0.25,
 'bExp': 5.0,
 'bucketSize': 8,
 'cornerAngle': 30.0,
 'errTol': 0.0005,
 'evalMode': 'fast',
 'fileType': 'OpenFOAM',
 'gridFile': '/home/dafoamuser/mount',
 'restartFile': None,
 'specifiedSurfaces': None,
 'symmTol': 1e-06,
 'symmetryPlanes': [[[0, 0, 0], [0, 0, 0.1]], [[0, 0, 0.1], [0, 0, 0.1]]],
 'symmetrySurfaces': None,
 'useRotations': True,
 'zeroCornerRotations': True}
I/O    : uncollated
Case   : /home/dafoamuser/mount
nProcs : 32
Hosts  :
(
    (75d5b7c6b221 32)
)
Pstream initialized with:
    floatTransfer      : 0
    nProcsSimpleSum    : 0
    commsType          : nonBlocking
    polling iterations : 0
Reading the OpenFOAM mesh..
Overriding DebugSwitches according to controlDict
    SolverPerformance 0;

Checking if we need to compress the mesh files
Checking if we need to compress the mesh files
#------------------------------#
 Total Volume Nodes :     85078 
#------------------------------#
Finalising parallel run
I/O    : uncollated
+-------------------- Symmetry Planes -------------------+
|           Point                        Normal          |
| (  0.000   0.000   0.000)    (  0.000   0.000   0.100) |
| (  0.000   0.000   0.100)    (  0.000   0.000   0.100) |
+--------------------------------------------------------+
#--------------------------------#
 Unique Surface Nodes :      2042 
#--------------------------------#
 Computing Denominator Estimate...
 Load Balancing...
 Finished Mesh Initialization.
OrderedDict([('inout', [0]), ('procBoundary0to1', [1]), ('procBoundary0to14', [2]), ('procBoundary0to2', [3]), ('procBoundary0to5', [4]), ('profile0', [5]), ('profile1', [6]), ('symmetry1', [7]), ('symmetry2', [8]), ('allSurfaces', [0, 1, 2, 3, 4, 5, 6, 7, 8]), ('allWalls', [5, 6]), ('designSurfaces', [5, 6])])
dRdWT Jacobian Free created!
/home/dafoamuser/dafoam/packages/miniconda3/lib/python3.9/site-packages/openmdao/core/component.py:140: OMDeprecationWarning:'scenario1.coupling.solver' <class DAFoamSolver>: It appears this component mixes distributed/non-distributed inputs and outputs, so it may break starting with OpenMDAO 3.25, where the convention used when passing data between distributed and non-distributed inputs and outputs within a matrix free component will change. See https://github.com/OpenMDAO/POEMs/blob/master/POEM_075.md for details.
/home/dafoamuser/dafoam/packages/miniconda3/lib/python3.9/site-packages/openmdao/core/component.py:140: OMDeprecationWarning:'scenario1.coupling.solver' <class DAFoamSolver>: It appears this component mixes distributed/non-distributed inputs and outputs, so it may break starting with OpenMDAO 3.25, where the convention used when passing data between distributed and non-distributed inputs and outputs within a matrix free component will change. See https://github.com/OpenMDAO/POEMs/blob/master/POEM_075.md for details.
/home/dafoamuser/dafoam/packages/miniconda3/lib/python3.9/site-packages/openmdao/core/component.py:140: OMDeprecationWarning:'scenario1.coupling.solver' <class DAFoamSolver>: It appears this component mixes distributed/non-distributed inputs and outputs, so it may break starting with OpenMDAO 3.25, where the convention used when passing data between distributed and non-distributed inputs and outputs within a matrix free component will change. See https://github.com/OpenMDAO/POEMs/blob/master/POEM_075.md for details.
/home/dafoamuser/dafoam/packages/miniconda3/lib/python3.9/site-packages/openmdao/core/component.py:140: OMDeprecationWarning:'scenario1.coupling.solver' <class DAFoamSolver>: It appears this component mixes distributed/non-distributed inputs and outputs, so it may break starting with OpenMDAO 3.25, where the convention used when passing data between distributed and non-distributed inputs and outputs within a matrix free component will change. See https://github.com/OpenMDAO/POEMs/blob/master/POEM_075.md for details.
/home/dafoamuser/dafoam/packages/miniconda3/lib/python3.9/site-packages/openmdao/core/component.py:140: OMDeprecationWarning:'scenario1.coupling.solver' <class DAFoamSolver>: It appears this component mixes distributed/non-distributed inputs and outputs, so it may break starting with OpenMDAO 3.25, where the convention used when passing data between distributed and non-distributed inputs and outputs within a matrix free component will change. See https://github.com/OpenMDAO/POEMs/blob/master/POEM_075.md for details.
/home/dafoamuser/dafoam/packages/miniconda3/lib/python3.9/site-packages/openmdao/core/component.py:140: OMDeprecationWarning:'scenario1.coupling.solver' <class DAFoamSolver>: It appears this component mixes distributed/non-distributed inputs and outputs, so it may break starting with OpenMDAO 3.25, where the convention used when passing data between distributed and non-distributed inputs and outputs within a matrix free component will change. See https://github.com/OpenMDAO/POEMs/blob/master/POEM_075.md for details.
/home/dafoamuser/dafoam/packages/miniconda3/lib/python3.9/site-packages/openmdao/core/component.py:140: OMDeprecationWarning:'scenario1.coupling.solver' <class DAFoamSolver>: It appears this component mixes distributed/non-distributed inputs and outputs, so it may break starting with OpenMDAO 3.25, where the convention used when passing data between distributed and non-distributed inputs and outputs within a matrix free component will change. See https://github.com/OpenMDAO/POEMs/blob/master/POEM_075.md for details.
/home/dafoamuser/dafoam/packages/miniconda3/lib/python3.9/site-packages/openmdao/core/component.py:140: OMDeprecationWarning:'scenario1.coupling.solver' <class DAFoamSolver>: It appears this component mixes distributed/non-distributed inputs and outputs, so it may break starting with OpenMDAO 3.25, where the convention used when passing data between distributed and non-distributed inputs and outputs within a matrix free component will change. See https://github.com/OpenMDAO/POEMs/blob/master/POEM_075.md for details.
/home/dafoamuser/dafoam/packages/miniconda3/lib/python3.9/site-packages/openmdao/core/component.py:140: OMDeprecationWarning:'scenario1.coupling.solver' <class DAFoamSolver>: It appears this component mixes distributed/non-distributed inputs and outputs, so it may break starting with OpenMDAO 3.25, where the convention used when passing data between distributed and non-distributed inputs and outputs within a matrix free component will change. See https://github.com/OpenMDAO/POEMs/blob/master/POEM_075.md for details.
/home/dafoamuser/dafoam/packages/miniconda3/lib/python3.9/site-packages/openmdao/core/component.py:140: OMDeprecationWarning:'scenario1.coupling.solver' <class DAFoamSolver>: It appears this component mixes distributed/non-distributed inputs and outputs, so it may break starting with OpenMDAO 3.25, where the convention used when passing data between distributed and non-distributed inputs and outputs within a matrix free component will change. See https://github.com/OpenMDAO/POEMs/blob/master/POEM_075.md for details.
/home/dafoamuser/dafoam/packages/miniconda3/lib/python3.9/site-packages/openmdao/core/component.py:140: OMDeprecationWarning:'scenario1.coupling.solver' <class DAFoamSolver>: It appears this component mixes distributed/non-distributed inputs and outputs, so it may break starting with OpenMDAO 3.25, where the convention used when passing data between distributed and non-distributed inputs and outputs within a matrix free component will change. See https://github.com/OpenMDAO/POEMs/blob/master/POEM_075.md for details.
/home/dafoamuser/dafoam/packages/miniconda3/lib/python3.9/site-packages/openmdao/core/component.py:140: OMDeprecationWarning:'scenario1.coupling.solver' <class DAFoamSolver>: It appears this component mixes distributed/non-distributed inputs and outputs, so it may break starting with OpenMDAO 3.25, where the convention used when passing data between distributed and non-distributed inputs and outputs within a matrix free component will change. See https://github.com/OpenMDAO/POEMs/blob/master/POEM_075.md for details.
/home/dafoamuser/dafoam/packages/miniconda3/lib/python3.9/site-packages/openmdao/core/component.py:140: OMDeprecationWarning:'scenario1.coupling.solver' <class DAFoamSolver>: It appears this component mixes distributed/non-distributed inputs and outputs, so it may break starting with OpenMDAO 3.25, where the convention used when passing data between distributed and non-distributed inputs and outputs within a matrix free component will change. See https://github.com/OpenMDAO/POEMs/blob/master/POEM_075.md for details.
/home/dafoamuser/dafoam/packages/miniconda3/lib/python3.9/site-packages/openmdao/core/component.py:140: OMDeprecationWarning:'scenario1.coupling.solver' <class DAFoamSolver>: It appears this component mixes distributed/non-distributed inputs and outputs, so it may break starting with OpenMDAO 3.25, where the convention used when passing data between distributed and non-distributed inputs and outputs within a matrix free component will change. See https://github.com/OpenMDAO/POEMs/blob/master/POEM_075.md for details.
/home/dafoamuser/dafoam/packages/miniconda3/lib/python3.9/site-packages/openmdao/core/component.py:140: OMDeprecationWarning:'scenario1.coupling.solver' <class DAFoamSolver>: It appears this component mixes distributed/non-distributed inputs and outputs, so it may break starting with OpenMDAO 3.25, where the convention used when passing data between distributed and non-distributed inputs and outputs within a matrix free component will change. See https://github.com/OpenMDAO/POEMs/blob/master/POEM_075.md for details.
/home/dafoamuser/dafoam/packages/miniconda3/lib/python3.9/site-packages/openmdao/core/component.py:140: OMDeprecationWarning:'scenario1.coupling.solver' <class DAFoamSolver>: It appears this component mixes distributed/non-distributed inputs and outputs, so it may break starting with OpenMDAO 3.25, where the convention used when passing data between distributed and non-distributed inputs and outputs within a matrix free component will change. See https://github.com/OpenMDAO/POEMs/blob/master/POEM_075.md for details.
/home/dafoamuser/dafoam/packages/miniconda3/lib/python3.9/site-packages/openmdao/core/component.py:140: OMDeprecationWarning:'scenario1.coupling.solver' <class DAFoamSolver>: It appears this component mixes distributed/non-distributed inputs and outputs, so it may break starting with OpenMDAO 3.25, where the convention used when passing data between distributed and non-distributed inputs and outputs within a matrix free component will change. See https://github.com/OpenMDAO/POEMs/blob/master/POEM_075.md for details.
/home/dafoamuser/dafoam/packages/miniconda3/lib/python3.9/site-packages/openmdao/core/component.py:140: OMDeprecationWarning:'scenario1.coupling.solver' <class DAFoamSolver>: It appears this component mixes distributed/non-distributed inputs and outputs, so it may break starting with OpenMDAO 3.25, where the convention used when passing data between distributed and non-distributed inputs and outputs within a matrix free component will change. See https://github.com/OpenMDAO/POEMs/blob/master/POEM_075.md for details.
/home/dafoamuser/dafoam/packages/miniconda3/lib/python3.9/site-packages/openmdao/core/component.py:140: OMDeprecationWarning:'scenario1.coupling.solver' <class DAFoamSolver>: It appears this component mixes distributed/non-distributed inputs and outputs, so it may break starting with OpenMDAO 3.25, where the convention used when passing data between distributed and non-distributed inputs and outputs within a matrix free component will change. See https://github.com/OpenMDAO/POEMs/blob/master/POEM_075.md for details.
/home/dafoamuser/dafoam/packages/miniconda3/lib/python3.9/site-packages/openmdao/core/component.py:140: OMDeprecationWarning:'scenario1.coupling.solver' <class DAFoamSolver>: It appears this component mixes distributed/non-distributed inputs and outputs, so it may break starting with OpenMDAO 3.25, where the convention used when passing data between distributed and non-distributed inputs and outputs within a matrix free component will change. See https://github.com/OpenMDAO/POEMs/blob/master/POEM_075.md for details.
/home/dafoamuser/dafoam/packages/miniconda3/lib/python3.9/site-packages/openmdao/core/component.py:140: OMDeprecationWarning:'scenario1.aero_post.functionals' <class DAFoamFunctions>: It appears this component mixes distributed/non-distributed inputs and outputs, so it may break starting with OpenMDAO 3.25, where the convention used when passing data between distributed and non-distributed inputs and outputs within a matrix free component will change. See https://github.com/OpenMDAO/POEMs/blob/master/POEM_075.md for details.
/home/dafoamuser/dafoam/packages/miniconda3/lib/python3.9/site-packages/openmdao/core/component.py:140: OMDeprecationWarning:'scenario1.coupling.solver' <class DAFoamSolver>: It appears this component mixes distributed/non-distributed inputs and outputs, so it may break starting with OpenMDAO 3.25, where the convention used when passing data between distributed and non-distributed inputs and outputs within a matrix free component will change. See https://github.com/OpenMDAO/POEMs/blob/master/POEM_075.md for details.
/home/dafoamuser/dafoam/packages/miniconda3/lib/python3.9/site-packages/openmdao/core/component.py:140: OMDeprecationWarning:'scenario1.aero_post.functionals' <class DAFoamFunctions>: It appears this component mixes distributed/non-distributed inputs and outputs, so it may break starting with OpenMDAO 3.25, where the convention used when passing data between distributed and non-distributed inputs and outputs within a matrix free component will change. See https://github.com/OpenMDAO/POEMs/blob/master/POEM_075.md for details.
/home/dafoamuser/dafoam/packages/miniconda3/lib/python3.9/site-packages/openmdao/core/component.py:140: OMDeprecationWarning:'scenario1.coupling.solver' <class DAFoamSolver>: It appears this component mixes distributed/non-distributed inputs and outputs, so it may break starting with OpenMDAO 3.25, where the convention used when passing data between distributed and non-distributed inputs and outputs within a matrix free component will change. See https://github.com/OpenMDAO/POEMs/blob/master/POEM_075.md for details.
/home/dafoamuser/dafoam/packages/miniconda3/lib/python3.9/site-packages/openmdao/core/component.py:140: OMDeprecationWarning:'scenario1.aero_post.functionals' <class DAFoamFunctions>: It appears this component mixes distributed/non-distributed inputs and outputs, so it may break starting with OpenMDAO 3.25, where the convention used when passing data between distributed and non-distributed inputs and outputs within a matrix free component will change. See https://github.com/OpenMDAO/POEMs/blob/master/POEM_075.md for details.
/home/dafoamuser/dafoam/packages/miniconda3/lib/python3.9/site-packages/openmdao/core/component.py:140: OMDeprecationWarning:'scenario1.coupling.solver' <class DAFoamSolver>: It appears this component mixes distributed/non-distributed inputs and outputs, so it may break starting with OpenMDAO 3.25, where the convention used when passing data between distributed and non-distributed inputs and outputs within a matrix free component will change. See https://github.com/OpenMDAO/POEMs/blob/master/POEM_075.md for details.
/home/dafoamuser/dafoam/packages/miniconda3/lib/python3.9/site-packages/openmdao/core/component.py:140: OMDeprecationWarning:'scenario1.aero_post.functionals' <class DAFoamFunctions>: It appears this component mixes distributed/non-distributed inputs and outputs, so it may break starting with OpenMDAO 3.25, where the convention used when passing data between distributed and non-distributed inputs and outputs within a matrix free component will change. See https://github.com/OpenMDAO/POEMs/blob/master/POEM_075.md for details.
/home/dafoamuser/dafoam/packages/miniconda3/lib/python3.9/site-packages/openmdao/core/component.py:140: OMDeprecationWarning:'scenario1.coupling.solver' <class DAFoamSolver>: It appears this component mixes distributed/non-distributed inputs and outputs, so it may break starting with OpenMDAO 3.25, where the convention used when passing data between distributed and non-distributed inputs and outputs within a matrix free component will change. See https://github.com/OpenMDAO/POEMs/blob/master/POEM_075.md for details.
/home/dafoamuser/dafoam/packages/miniconda3/lib/python3.9/site-packages/openmdao/core/component.py:140: OMDeprecationWarning:'scenario1.aero_post.functionals' <class DAFoamFunctions>: It appears this component mixes distributed/non-distributed inputs and outputs, so it may break starting with OpenMDAO 3.25, where the convention used when passing data between distributed and non-distributed inputs and outputs within a matrix free component will change. See https://github.com/OpenMDAO/POEMs/blob/master/POEM_075.md for details.
/home/dafoamuser/dafoam/packages/miniconda3/lib/python3.9/site-packages/openmdao/core/component.py:140: OMDeprecationWarning:'scenario1.coupling.solver' <class DAFoamSolver>: It appears this component mixes distributed/non-distributed inputs and outputs, so it may break starting with OpenMDAO 3.25, where the convention used when passing data between distributed and non-distributed inputs and outputs within a matrix free component will change. See https://github.com/OpenMDAO/POEMs/blob/master/POEM_075.md for details.
/home/dafoamuser/dafoam/packages/miniconda3/lib/python3.9/site-packages/openmdao/core/component.py:140: OMDeprecationWarning:'scenario1.aero_post.functionals' <class DAFoamFunctions>: It appears this component mixes distributed/non-distributed inputs and outputs, so it may break starting with OpenMDAO 3.25, where the convention used when passing data between distributed and non-distributed inputs and outputs within a matrix free component will change. See https://github.com/OpenMDAO/POEMs/blob/master/POEM_075.md for details.
/home/dafoamuser/dafoam/packages/miniconda3/lib/python3.9/site-packages/openmdao/core/component.py:140: OMDeprecationWarning:'scenario1.coupling.solver' <class DAFoamSolver>: It appears this component mixes distributed/non-distributed inputs and outputs, so it may break starting with OpenMDAO 3.25, where the convention used when passing data between distributed and non-distributed inputs and outputs within a matrix free component will change. See https://github.com/OpenMDAO/POEMs/blob/master/POEM_075.md for details.
/home/dafoamuser/dafoam/packages/miniconda3/lib/python3.9/site-packages/openmdao/core/component.py:140: OMDeprecationWarning:'scenario1.aero_post.functionals' <class DAFoamFunctions>: It appears this component mixes distributed/non-distributed inputs and outputs, so it may break starting with OpenMDAO 3.25, where the convention used when passing data between distributed and non-distributed inputs and outputs within a matrix free component will change. See https://github.com/OpenMDAO/POEMs/blob/master/POEM_075.md for details.
/home/dafoamuser/dafoam/packages/miniconda3/lib/python3.9/site-packages/openmdao/core/component.py:140: OMDeprecationWarning:'scenario1.coupling.solver' <class DAFoamSolver>: It appears this component mixes distributed/non-distributed inputs and outputs, so it may break starting with OpenMDAO 3.25, where the convention used when passing data between distributed and non-distributed inputs and outputs within a matrix free component will change. See https://github.com/OpenMDAO/POEMs/blob/master/POEM_075.md for details.
/home/dafoamuser/dafoam/packages/miniconda3/lib/python3.9/site-packages/openmdao/core/component.py:140: OMDeprecationWarning:'scenario1.aero_post.functionals' <class DAFoamFunctions>: It appears this component mixes distributed/non-distributed inputs and outputs, so it may break starting with OpenMDAO 3.25, where the convention used when passing data between distributed and non-distributed inputs and outputs within a matrix free component will change. See https://github.com/OpenMDAO/POEMs/blob/master/POEM_075.md for details.
/home/dafoamuser/dafoam/packages/miniconda3/lib/python3.9/site-packages/openmdao/core/component.py:140: OMDeprecationWarning:'scenario1.coupling.solver' <class DAFoamSolver>: It appears this component mixes distributed/non-distributed inputs and outputs, so it may break starting with OpenMDAO 3.25, where the convention used when passing data between distributed and non-distributed inputs and outputs within a matrix free component will change. See https://github.com/OpenMDAO/POEMs/blob/master/POEM_075.md for details.
/home/dafoamuser/dafoam/packages/miniconda3/lib/python3.9/site-packages/openmdao/core/component.py:140: OMDeprecationWarning:'scenario1.aero_post.functionals' <class DAFoamFunctions>: It appears this component mixes distributed/non-distributed inputs and outputs, so it may break starting with OpenMDAO 3.25, where the convention used when passing data between distributed and non-distributed inputs and outputs within a matrix free component will change. See https://github.com/OpenMDAO/POEMs/blob/master/POEM_075.md for details.
/home/dafoamuser/dafoam/packages/miniconda3/lib/python3.9/site-packages/openmdao/core/component.py:140: OMDeprecationWarning:'scenario1.coupling.solver' <class DAFoamSolver>: It appears this component mixes distributed/non-distributed inputs and outputs, so it may break starting with OpenMDAO 3.25, where the convention used when passing data between distributed and non-distributed inputs and outputs within a matrix free component will change. See https://github.com/OpenMDAO/POEMs/blob/master/POEM_075.md for details.
/home/dafoamuser/dafoam/packages/miniconda3/lib/python3.9/site-packages/openmdao/core/component.py:140: OMDeprecationWarning:'scenario1.aero_post.functionals' <class DAFoamFunctions>: It appears this component mixes distributed/non-distributed inputs and outputs, so it may break starting with OpenMDAO 3.25, where the convention used when passing data between distributed and non-distributed inputs and outputs within a matrix free component will change. See https://github.com/OpenMDAO/POEMs/blob/master/POEM_075.md for details.
/home/dafoamuser/dafoam/packages/miniconda3/lib/python3.9/site-packages/openmdao/core/component.py:140: OMDeprecationWarning:'scenario1.coupling.solver' <class DAFoamSolver>: It appears this component mixes distributed/non-distributed inputs and outputs, so it may break starting with OpenMDAO 3.25, where the convention used when passing data between distributed and non-distributed inputs and outputs within a matrix free component will change. See https://github.com/OpenMDAO/POEMs/blob/master/POEM_075.md for details.
/home/dafoamuser/dafoam/packages/miniconda3/lib/python3.9/site-packages/openmdao/core/component.py:140: OMDeprecationWarning:'scenario1.aero_post.functionals' <class DAFoamFunctions>: It appears this component mixes distributed/non-distributed inputs and outputs, so it may break starting with OpenMDAO 3.25, where the convention used when passing data between distributed and non-distributed inputs and outputs within a matrix free component will change. See https://github.com/OpenMDAO/POEMs/blob/master/POEM_075.md for details.
/home/dafoamuser/dafoam/packages/miniconda3/lib/python3.9/site-packages/openmdao/core/component.py:140: OMDeprecationWarning:'scenario1.aero_post.functionals' <class DAFoamFunctions>: It appears this component mixes distributed/non-distributed inputs and outputs, so it may break starting with OpenMDAO 3.25, where the convention used when passing data between distributed and non-distributed inputs and outputs within a matrix free component will change. See https://github.com/OpenMDAO/POEMs/blob/master/POEM_075.md for details.
/home/dafoamuser/dafoam/packages/miniconda3/lib/python3.9/site-packages/openmdao/core/component.py:140: OMDeprecationWarning:'scenario1.aero_post.functionals' <class DAFoamFunctions>: It appears this component mixes distributed/non-distributed inputs and outputs, so it may break starting with OpenMDAO 3.25, where the convention used when passing data between distributed and non-distributed inputs and outputs within a matrix free component will change. See https://github.com/OpenMDAO/POEMs/blob/master/POEM_075.md for details.
/home/dafoamuser/dafoam/packages/miniconda3/lib/python3.9/site-packages/openmdao/core/component.py:140: OMDeprecationWarning:'scenario1.coupling.solver' <class DAFoamSolver>: It appears this component mixes distributed/non-distributed inputs and outputs, so it may break starting with OpenMDAO 3.25, where the convention used when passing data between distributed and non-distributed inputs and outputs within a matrix free component will change. See https://github.com/OpenMDAO/POEMs/blob/master/POEM_075.md for details.
/home/dafoamuser/dafoam/packages/miniconda3/lib/python3.9/site-packages/openmdao/core/component.py:140: OMDeprecationWarning:'scenario1.aero_post.functionals' <class DAFoamFunctions>: It appears this component mixes distributed/non-distributed inputs and outputs, so it may break starting with OpenMDAO 3.25, where the convention used when passing data between distributed and non-distributed inputs and outputs within a matrix free component will change. See https://github.com/OpenMDAO/POEMs/blob/master/POEM_075.md for details.
/home/dafoamuser/dafoam/packages/miniconda3/lib/python3.9/site-packages/openmdao/core/component.py:140: OMDeprecationWarning:'scenario1.aero_post.functionals' <class DAFoamFunctions>: It appears this component mixes distributed/non-distributed inputs and outputs, so it may break starting with OpenMDAO 3.25, where the convention used when passing data between distributed and non-distributed inputs and outputs within a matrix free component will change. See https://github.com/OpenMDAO/POEMs/blob/master/POEM_075.md for details.
/home/dafoamuser/dafoam/packages/miniconda3/lib/python3.9/site-packages/openmdao/core/component.py:140: OMDeprecationWarning:'scenario1.aero_post.functionals' <class DAFoamFunctions>: It appears this component mixes distributed/non-distributed inputs and outputs, so it may break starting with OpenMDAO 3.25, where the convention used when passing data between distributed and non-distributed inputs and outputs within a matrix free component will change. See https://github.com/OpenMDAO/POEMs/blob/master/POEM_075.md for details.
/home/dafoamuser/dafoam/packages/miniconda3/lib/python3.9/site-packages/openmdao/core/component.py:140: OMDeprecationWarning:'scenario1.aero_post.functionals' <class DAFoamFunctions>: It appears this component mixes distributed/non-distributed inputs and outputs, so it may break starting with OpenMDAO 3.25, where the convention used when passing data between distributed and non-distributed inputs and outputs within a matrix free component will change. See https://github.com/OpenMDAO/POEMs/blob/master/POEM_075.md for details.
/home/dafoamuser/dafoam/packages/miniconda3/lib/python3.9/site-packages/openmdao/core/component.py:140: OMDeprecationWarning:'scenario1.aero_post.functionals' <class DAFoamFunctions>: It appears this component mixes distributed/non-distributed inputs and outputs, so it may break starting with OpenMDAO 3.25, where the convention used when passing data between distributed and non-distributed inputs and outputs within a matrix free component will change. See https://github.com/OpenMDAO/POEMs/blob/master/POEM_075.md for details.
/home/dafoamuser/dafoam/packages/miniconda3/lib/python3.9/site-packages/openmdao/core/component.py:140: OMDeprecationWarning:'scenario1.aero_post.functionals' <class DAFoamFunctions>: It appears this component mixes distributed/non-distributed inputs and outputs, so it may break starting with OpenMDAO 3.25, where the convention used when passing data between distributed and non-distributed inputs and outputs within a matrix free component will change. See https://github.com/OpenMDAO/POEMs/blob/master/POEM_075.md for details.
/home/dafoamuser/dafoam/packages/miniconda3/lib/python3.9/site-packages/openmdao/core/component.py:140: OMDeprecationWarning:'scenario1.aero_post.functionals' <class DAFoamFunctions>: It appears this component mixes distributed/non-distributed inputs and outputs, so it may break starting with OpenMDAO 3.25, where the convention used when passing data between distributed and non-distributed inputs and outputs within a matrix free component will change. See https://github.com/OpenMDAO/POEMs/blob/master/POEM_075.md for details.
/home/dafoamuser/dafoam/packages/miniconda3/lib/python3.9/site-packages/openmdao/core/component.py:140: OMDeprecationWarning:'scenario1.aero_post.functionals' <class DAFoamFunctions>: It appears this component mixes distributed/non-distributed inputs and outputs, so it may break starting with OpenMDAO 3.25, where the convention used when passing data between distributed and non-distributed inputs and outputs within a matrix free component will change. See https://github.com/OpenMDAO/POEMs/blob/master/POEM_075.md for details.
/home/dafoamuser/dafoam/packages/miniconda3/lib/python3.9/site-packages/openmdao/core/component.py:140: OMDeprecationWarning:'scenario1.aero_post.functionals' <class DAFoamFunctions>: It appears this component mixes distributed/non-distributed inputs and outputs, so it may break starting with OpenMDAO 3.25, where the convention used when passing data between distributed and non-distributed inputs and outputs within a matrix free component will change. See https://github.com/OpenMDAO/POEMs/blob/master/POEM_075.md for details.
/home/dafoamuser/dafoam/packages/miniconda3/lib/python3.9/site-packages/openmdao/core/component.py:140: OMDeprecationWarning:'scenario1.aero_post.functionals' <class DAFoamFunctions>: It appears this component mixes distributed/non-distributed inputs and outputs, so it may break starting with OpenMDAO 3.25, where the convention used when passing data between distributed and non-distributed inputs and outputs within a matrix free component will change. See https://github.com/OpenMDAO/POEMs/blob/master/POEM_075.md for details.
/home/dafoamuser/dafoam/packages/miniconda3/lib/python3.9/site-packages/openmdao/core/component.py:140: OMDeprecationWarning:'scenario1.aero_post.functionals' <class DAFoamFunctions>: It appears this component mixes distributed/non-distributed inputs and outputs, so it may break starting with OpenMDAO 3.25, where the convention used when passing data between distributed and non-distributed inputs and outputs within a matrix free component will change. See https://github.com/OpenMDAO/POEMs/blob/master/POEM_075.md for details.
/home/dafoamuser/dafoam/packages/miniconda3/lib/python3.9/site-packages/openmdao/core/component.py:140: OMDeprecationWarning:'scenario1.aero_post.functionals' <class DAFoamFunctions>: It appears this component mixes distributed/non-distributed inputs and outputs, so it may break starting with OpenMDAO 3.25, where the convention used when passing data between distributed and non-distributed inputs and outputs within a matrix free component will change. See https://github.com/OpenMDAO/POEMs/blob/master/POEM_075.md for details.
/home/dafoamuser/dafoam/packages/miniconda3/lib/python3.9/site-packages/openmdao/core/component.py:140: OMDeprecationWarning:'scenario1.aero_post.functionals' <class DAFoamFunctions>: It appears this component mixes distributed/non-distributed inputs and outputs, so it may break starting with OpenMDAO 3.25, where the convention used when passing data between distributed and non-distributed inputs and outputs within a matrix free component will change. See https://github.com/OpenMDAO/POEMs/blob/master/POEM_075.md for details.
/home/dafoamuser/dafoam/packages/miniconda3/lib/python3.9/site-packages/openmdao/core/component.py:140: OMDeprecationWarning:'scenario1.aero_post.functionals' <class DAFoamFunctions>: It appears this component mixes distributed/non-distributed inputs and outputs, so it may break starting with OpenMDAO 3.25, where the convention used when passing data between distributed and non-distributed inputs and outputs within a matrix free component will change. See https://github.com/OpenMDAO/POEMs/blob/master/POEM_075.md for details.
/home/dafoamuser/dafoam/packages/miniconda3/lib/python3.9/site-packages/openmdao/core/component.py:140: OMDeprecationWarning:'scenario1.aero_post.functionals' <class DAFoamFunctions>: It appears this component mixes distributed/non-distributed inputs and outputs, so it may break starting with OpenMDAO 3.25, where the convention used when passing data between distributed and non-distributed inputs and outputs within a matrix free component will change. See https://github.com/OpenMDAO/POEMs/blob/master/POEM_075.md for details.
/home/dafoamuser/dafoam/packages/miniconda3/lib/python3.9/site-packages/openmdao/core/component.py:140: OMDeprecationWarning:'scenario1.aero_post.functionals' <class DAFoamFunctions>: It appears this component mixes distributed/non-distributed inputs and outputs, so it may break starting with OpenMDAO 3.25, where the convention used when passing data between distributed and non-distributed inputs and outputs within a matrix free component will change. See https://github.com/OpenMDAO/POEMs/blob/master/POEM_075.md for details.
/home/dafoamuser/dafoam/packages/miniconda3/lib/python3.9/site-packages/openmdao/core/component.py:140: OMDeprecationWarning:'scenario1.coupling.solver' <class DAFoamSolver>: It appears this component mixes distributed/non-distributed inputs and outputs, so it may break starting with OpenMDAO 3.25, where the convention used when passing data between distributed and non-distributed inputs and outputs within a matrix free component will change. See https://github.com/OpenMDAO/POEMs/blob/master/POEM_075.md for details.
/home/dafoamuser/dafoam/packages/miniconda3/lib/python3.9/site-packages/openmdao/core/component.py:140: OMDeprecationWarning:'scenario1.aero_post.functionals' <class DAFoamFunctions>: It appears this component mixes distributed/non-distributed inputs and outputs, so it may break starting with OpenMDAO 3.25, where the convention used when passing data between distributed and non-distributed inputs and outputs within a matrix free component will change. See https://github.com/OpenMDAO/POEMs/blob/master/POEM_075.md for details.
/home/dafoamuser/dafoam/packages/miniconda3/lib/python3.9/site-packages/openmdao/core/component.py:140: OMDeprecationWarning:'scenario1.aero_post.functionals' <class DAFoamFunctions>: It appears this component mixes distributed/non-distributed inputs and outputs, so it may break starting with OpenMDAO 3.25, where the convention used when passing data between distributed and non-distributed inputs and outputs within a matrix free component will change. See https://github.com/OpenMDAO/POEMs/blob/master/POEM_075.md for details.
/home/dafoamuser/dafoam/packages/miniconda3/lib/python3.9/site-packages/openmdao/core/component.py:140: OMDeprecationWarning:'scenario1.aero_post.functionals' <class DAFoamFunctions>: It appears this component mixes distributed/non-distributed inputs and outputs, so it may break starting with OpenMDAO 3.25, where the convention used when passing data between distributed and non-distributed inputs and outputs within a matrix free component will change. See https://github.com/OpenMDAO/POEMs/blob/master/POEM_075.md for details.
 -> Warning: 17 point(s) not projected to tolerance: 1e-12. Max Error:  1.49012e-09 ; RMS Error:  1.05367e-09
List of Points is: (pt, delta):
[     0.98479     -0.13243          0.1] [  1.1102e-16  -2.7756e-17  -1.4901e-09]
[     0.98472     -0.13152          0.1] [ -1.1102e-16            0  -1.4901e-09]
[     0.98553     -0.13294          0.1] [           0   2.7756e-17  -1.4901e-09]
[     0.98639     -0.13315          0.1] [  1.1102e-16            0  -1.4901e-09]
[     0.98729     -0.13329          0.1] [           0            0  -1.4901e-09]
[     0.98818     -0.13341          0.1] [  2.2204e-16  -2.7756e-17  -1.4901e-09]
[      0.9891     -0.13351          0.1] [  1.1102e-16            0  -1.4901e-09]
[     0.99001      -0.1336          0.1] [ -1.1102e-16            0  -1.4901e-09]
[     0.99093     -0.13368          0.1] [ -1.1102e-16            0  -1.4901e-09]
[     0.99185     -0.13376          0.1] [  2.2204e-16  -2.7756e-17  -1.4901e-09]
[     0.99625     -0.13404          0.1] [           0            0  -1.4901e-09]
[     0.99713     -0.13409          0.1] [ -1.1102e-16            0  -1.4901e-09]
[       0.998     -0.13413          0.1] [  2.2204e-16  -5.5511e-17  -1.4901e-09]
[     0.99275     -0.13382          0.1] [           0            0  -1.4901e-09]
[     0.99366     -0.13389          0.1] [           0            0  -1.4901e-09]
[     0.99452     -0.13394          0.1] [  3.3307e-16  -5.5511e-17  -1.4901e-09]
[      0.9954     -0.13399          0.1] [           0            0  -1.4901e-09]
 -> Warning: 26 point(s) not projected to tolerance: 1e-12. Max Error:  1.49012e-09 ; RMS Error:  1.05367e-09
List of Points is: (pt, delta):
[      1.5607      -0.3517          0.1] [           0   5.5511e-17  -1.4901e-09]
[      1.5648     -0.35545          0.1] [  2.2204e-16            0  -1.4901e-09]
[      1.5525     -0.34434          0.1] [           0            0  -1.4901e-09]
[      1.5567     -0.34806          0.1] [           0   5.5511e-17  -1.4901e-09]
[      1.5443     -0.33705          0.1] [ -2.2204e-16   1.1102e-16  -1.4901e-09]
[      1.5484     -0.34073          0.1] [           0            0  -1.4901e-09]
[      1.5359     -0.32981          0.1] [  4.4409e-16            0  -1.4901e-09]
[      1.5402     -0.33346          0.1] [  4.4409e-16  -1.1102e-16  -1.4901e-09]
[      1.5233     -0.31904          0.1] [  2.2204e-16  -1.6653e-16  -1.4901e-09]
[      1.5148     -0.31195          0.1] [           0            0  -1.4901e-09]
[      1.5191     -0.31553          0.1] [           0   5.5511e-17  -1.4901e-09]
[      1.5275     -0.32263          0.1] [           0   5.5511e-17  -1.4901e-09]
[      1.5318     -0.32622          0.1] [  2.2204e-16            0  -1.4901e-09]
[      1.5106     -0.30852          0.1] [           0  -5.5511e-17  -1.4901e-09]
[      1.5062     -0.30496          0.1] [  2.2204e-16            0  -1.4901e-09]
[      1.5021     -0.30158          0.1] [           0            0  -1.4901e-09]
[      1.6007     -0.38954          0.1] [           0            0  -1.4901e-09]
[      1.6046     -0.39342          0.1] [  2.2204e-16  -1.1102e-16  -1.4901e-09]
[      1.5928     -0.38184          0.1] [  2.2204e-16            0  -1.4901e-09]
[      1.5968     -0.38569          0.1] [           0            0  -1.4901e-09]
[      1.5849      -0.3742          0.1] [           0            0  -1.4901e-09]
[      1.5889     -0.37803          0.1] [  2.2204e-16  -1.6653e-16  -1.4901e-09]
[      1.5769     -0.36664          0.1] [           0            0  -1.4901e-09]
[      1.5809     -0.37044          0.1] [  2.2204e-16            0  -1.4901e-09]
[      1.5688     -0.35913          0.1] [  2.2204e-16  -1.1102e-16  -1.4901e-09]
[      1.5729     -0.36291          0.1] [           0  -5.5511e-17  -1.4901e-09]
 -> Warning: 36 point(s) not projected to tolerance: 1e-12. Max Error:  1.49012e-09 ; RMS Error:  1.05367e-09
List of Points is: (pt, delta):
[      1.2011     -0.14452          0.1] [ -2.2204e-16   2.7756e-17  -1.4901e-09]
[      1.2071     -0.14592          0.1] [  2.2204e-16  -2.7756e-17  -1.4901e-09]
[      1.2195     -0.14895          0.1] [           0            0  -1.4901e-09]
[      1.2259     -0.15061          0.1] [  2.2204e-16  -2.7756e-17  -1.4901e-09]
[      1.2136     -0.14748          0.1] [           0            0  -1.4901e-09]
[      1.2435     -0.15554          0.1] [ -3.3307e-15   -4.996e-16  -1.4901e-09]
[      1.2497      -0.1574          0.1] [           0            0  -1.4901e-09]
[      1.2552     -0.15913          0.1] [           0   2.7756e-17  -1.4901e-09]
[      1.2316     -0.15215          0.1] [           0  -2.7756e-17  -1.4901e-09]
[      1.2379     -0.15391          0.1] [           0            0  -1.4901e-09]
[      1.2669     -0.16295          0.1] [           0            0  -1.4901e-09]
[       1.273     -0.16504          0.1] [           0            0  -1.4901e-09]
[      1.2614     -0.16111          0.1] [ -3.7748e-15  -1.2212e-15  -1.4901e-09]
[      1.2785     -0.16699          0.1] [  2.2204e-16  -2.7756e-17  -1.4901e-09]
[      1.2845     -0.16919          0.1] [  2.2204e-16  -5.5511e-17  -1.4901e-09]
[      1.0609     -0.12814          0.1] [           0  -2.7756e-17  -1.4901e-09]
[      1.0667      -0.1283          0.1] [           0            0  -1.4901e-09]
[      1.0726     -0.12849          0.1] [           0            0  -1.4901e-09]
[      1.0792     -0.12873          0.1] [           0            0  -1.4901e-09]
[      1.0859       -0.129          0.1] [           0            0  -1.4901e-09]
[       1.093     -0.12933          0.1] [           0            0  -1.4901e-09]
[      1.0999     -0.12968          0.1] [  2.2204e-16  -2.7756e-17  -1.4901e-09]
[      1.1071     -0.13011          0.1] [ -2.2204e-16  -2.7756e-17  -1.4901e-09]
[      1.1139     -0.13061          0.1] [           0            0  -1.4901e-09]
[      1.1275     -0.13201          0.1] [           0            0  -1.4901e-09]
[      1.1345     -0.13287          0.1] [           0            0  -1.4901e-09]
[      1.1209     -0.13128          0.1] [ -2.2204e-16  -2.7756e-17  -1.4901e-09]
[      1.1815     -0.14042          0.1] [           0            0  -1.4901e-09]
[      1.1882     -0.14177          0.1] [           0   2.7756e-17  -1.4901e-09]
[      1.1944     -0.14307          0.1] [  2.2204e-16            0  -1.4901e-09]
[      1.1411     -0.13374          0.1] [           0  -2.7756e-17  -1.4901e-09]
[      1.1481     -0.13473          0.1] [           0  -5.5511e-17  -1.4901e-09]
[      1.1547     -0.13574          0.1] [           0            0  -1.4901e-09]
[      1.1617     -0.13686          0.1] [  2.2204e-16  -2.7756e-17  -1.4901e-09]
[      1.1682     -0.13797          0.1] [           0            0  -1.4901e-09]
[      1.1751     -0.13921          0.1] [ -2.2204e-16   2.7756e-17  -1.4901e-09]
 -> Warning: 34 point(s) not projected to tolerance: 1e-12. Max Error:  1.49012e-09 ; RMS Error:  1.05367e-09
List of Points is: (pt, delta):
[       1.026      -0.1351          0.1] [           0            0  -1.4901e-09]
[      1.0291      -0.1352          0.1] [           0            0  -1.4901e-09]
[      1.0323     -0.13531          0.1] [  4.4409e-16  -2.7756e-17  -1.4901e-09]
[       1.036     -0.13544          0.1] [           0            0  -1.4901e-09]
[      1.0399     -0.13558          0.1] [           0   1.9429e-16  -1.4901e-09]
[      1.0442     -0.13575          0.1] [           0            0  -1.4901e-09]
[      1.0487     -0.13595          0.1] [           0            0  -1.4901e-09]
[      1.0539     -0.13618          0.1] [  2.2204e-16  -2.7756e-17  -1.4901e-09]
[      1.0592     -0.13645          0.1] [           0   2.7756e-17  -1.4901e-09]
[      1.0651     -0.13678          0.1] [           0  -2.7756e-17  -1.4901e-09]
[      1.0711     -0.13715          0.1] [  2.2204e-16            0  -1.4901e-09]
[      1.0086     -0.13455          0.1] [ -2.2204e-16            0  -1.4901e-09]
[      1.0096     -0.13459          0.1] [           0            0  -1.4901e-09]
[      1.0108     -0.13462          0.1] [           0            0  -1.4901e-09]
[       1.012     -0.13466          0.1] [           0            0  -1.4901e-09]
[      1.0134     -0.13471          0.1] [  2.2204e-16            0  -1.4901e-09]
[      1.0149     -0.13476          0.1] [  2.2204e-16            0  -1.4901e-09]
[      1.0166     -0.13481          0.1] [           0            0  -1.4901e-09]
[      1.0187     -0.13487          0.1] [           0            0  -1.4901e-09]
[      1.0208     -0.13493          0.1] [           0            0  -1.4901e-09]
[      1.0234     -0.13501          0.1] [           0   2.7756e-17  -1.4901e-09]
[      1.0776     -0.13758          0.1] [           0            0  -1.4901e-09]
[      1.0839     -0.13805          0.1] [           0            0  -1.4901e-09]
[       0.998     -0.13413          0.1] [  2.2204e-16  -5.5511e-17  -1.4901e-09]
[      0.9989     -0.13418          0.1] [           0            0  -1.4901e-09]
[     0.99981     -0.13422          0.1] [           0            0  -1.4901e-09]
[      1.0007     -0.13426          0.1] [           0   2.7756e-17  -1.4901e-09]
[      1.0017      -0.1343          0.1] [           0  -2.7756e-17  -1.4901e-09]
[      1.0027     -0.13434          0.1] [           0            0  -1.4901e-09]
[      1.0036     -0.13438          0.1] [  2.2204e-16  -5.5511e-17  -1.4901e-09]
[      1.0046     -0.13441          0.1] [           0  -2.7756e-17  -1.4901e-09]
[      1.0056     -0.13445          0.1] [  8.3489e-14   1.0345e-13  -1.4901e-09]
[      1.0066     -0.13448          0.1] [           0            0  -1.4901e-09]
[      1.0076     -0.13452          0.1] [  8.1934e-14   1.0189e-13  -1.4901e-09]
 -> Warning: 38 point(s) not projected to tolerance: 1e-12. Max Error:  1.49012e-09 ; RMS Error:  1.05367e-09
List of Points is: (pt, delta):
[      1.6263     -0.42644          0.1] [           0   5.5511e-17  -1.4901e-09]
[       1.668     -0.47115          0.1] [  2.2204e-16  -1.6653e-16  -1.4901e-09]
[      1.6605     -0.46287          0.1] [           0  -5.5511e-17  -1.4901e-09]
[      1.6642       -0.467          0.1] [           0  -1.1102e-16  -1.4901e-09]
[       1.653     -0.45466          0.1] [ -2.2204e-16   -9.992e-16  -1.4901e-09]
[      1.6455     -0.44652          0.1] [           0  -5.5511e-17  -1.4901e-09]
[      1.6492     -0.45055          0.1] [           0  -1.1102e-16  -1.4901e-09]
[      1.6568     -0.45874          0.1] [  2.2204e-16  -1.1102e-16  -1.4901e-09]
[      1.6417     -0.44245          0.1] [           0  -5.5511e-17  -1.4901e-09]
[       1.749     -0.57061          0.1] [           0            0  -1.4901e-09]
[      1.7557     -0.57959          0.1] [           0            0  -1.4901e-09]
[      1.7523     -0.57501          0.1] [  2.2204e-16            0  -1.4901e-09]
[      1.7321      -0.5483          0.1] [           0            0  -1.4901e-09]
[      1.7252     -0.53948          0.1] [           0            0  -1.4901e-09]
[      1.7286     -0.54382          0.1] [  1.3323e-15  -6.4393e-15  -1.4901e-09]
[      1.7423     -0.56163          0.1] [           0            0  -1.4901e-09]
[      1.7456     -0.56605          0.1] [  6.6613e-16            0  -1.4901e-09]
[      1.7389     -0.55715          0.1] [           0  -1.1102e-16  -1.4901e-09]
[      1.7355      -0.5527          0.1] [           0            0  -1.4901e-09]
[      1.6379     -0.43845          0.1] [ -2.2204e-16            0  -1.4901e-09]
[      1.6302     -0.43044          0.1] [  2.2204e-16  -5.5511e-17  -1.4901e-09]
[       1.634     -0.43442          0.1] [  2.2204e-16            0  -1.4901e-09]
[      1.6225     -0.42249          0.1] [           0  -5.5511e-17  -1.4901e-09]
[      1.7006     -0.50909          0.1] [           0            0  -1.4901e-09]
[      1.6717     -0.47534          0.1] [ -2.2204e-16            0  -1.4901e-09]
[      1.6863     -0.49214          0.1] [  4.4409e-16  -7.0499e-15  -1.4901e-09]
[      1.6935     -0.50059          0.1] [           0            0  -1.4901e-09]
[       1.697     -0.50475          0.1] [           0   1.1102e-16  -1.4901e-09]
[      1.6898     -0.49628          0.1] [           0            0  -1.4901e-09]
[       1.679     -0.48373          0.1] [           0   5.5511e-17  -1.4901e-09]
[      1.6826     -0.48786          0.1] [           0  -5.5511e-17  -1.4901e-09]
[      1.6753     -0.47949          0.1] [ -2.2204e-16   1.1102e-16  -1.4901e-09]
[      1.7182      -0.5307          0.1] [           0            0  -1.4901e-09]
[      1.7147     -0.52631          0.1] [  6.6613e-16  -4.4409e-16  -1.4901e-09]
[      1.7217     -0.53503          0.1] [           0            0  -1.4901e-09]
[      1.7077     -0.51767          0.1] [           0            0  -1.4901e-09]
[      1.7112     -0.52196          0.1] [  1.3323e-15  -9.4369e-15  -1.4901e-09]
[      1.7041     -0.51331          0.1] [  2.2204e-16  -1.1102e-16  -1.4901e-09]
 -> Warning: 40 point(s) not projected to tolerance: 1e-12. Max Error:  1.49012e-09 ; RMS Error:  1.05367e-09
List of Points is: (pt, delta):
[     0.58407      0.15238          0.1] [           0            0  -1.4901e-09]
[     0.59082      0.15387          0.1] [           0            0  -1.4901e-09]
[     0.59717      0.15567          0.1] [           0            0  -1.4901e-09]
[     0.60341      0.15772          0.1] [  1.2212e-15   -7.494e-16  -1.4901e-09]
[     0.60931      0.15983          0.1] [  1.1102e-16            0  -1.4901e-09]
[      0.6151      0.16204          0.1] [  1.1102e-16   2.7756e-17  -1.4901e-09]
[      0.6208       0.1643          0.1] [           0            0  -1.4901e-09]
[      0.6263      0.16654          0.1] [           0   2.7756e-17  -1.4901e-09]
[     0.63198       0.1689          0.1] [ -1.1102e-16            0  -1.4901e-09]
[     0.70148      0.19454          0.1] [           0  -8.3267e-17  -1.4901e-09]
[...]
p Initial residual: 0.01188626986747089
p   Final residual: 0.001086119967660904
Time step continuity errors : sum local = 0.0003822661657574343
                                 global = 2.58552427432449e-05
                             cumulative = 9.336469236895475e-05
nuTilda Initial residual: 0.0115435020837494
nuTilda   Final residual: 0.0007260080964835967
Bounding nuTilda>1e-16
CD: 0.2833715613163832 final: 0.2833715613163832
CL: 2.389582605776711 final: 2.389582605776711
skewness: 1.46071325627589 final: 1.46071325627589
nonOrtho: 43.9756466939745 final: 43.9756466939745
yPlus min: 0.07280408256841661 max: 20.0869722906051 mean: 4.276583459606092
ExecutionTime = 1637.13 s  ClockTime = 1642 s

Time = 600

U Initial residual: (0.004903013220571907 0.01002346299316433 0.03777658132181835)
U   Final residual: (0.0003464426019622955 0.0007134290990320248 0.003101332869151539)
p Initial residual: 0.009328686323271541
p   Final residual: 0.0005220529382535969
Time step continuity errors : sum local = 0.0001989446937327043
                                 global = -1.341190301718124e-05
                             cumulative = 7.995278935177352e-05
nuTilda Initial residual: 0.00965916917280657
nuTilda   Final residual: 0.0006471611003697609
Bounding nuTilda>1e-16
CD: 0.2754456744240085 final: 0.2754456744240085
CL: 2.407189608519376 final: 2.407189608519376
skewness: 1.46071325627589 final: 1.46071325627589
nonOrtho: 43.9756466939745 final: 43.9756466939745
yPlus min: 0.05783915663730341 max: 20.18414203498231 mean: 4.272369592085908
ExecutionTime = 1637.82 s  ClockTime = 1643 s

Time = 700

U Initial residual: (0.00530111356942307 0.0096968612850172 0.03868793881716056)
U   Final residual: (0.0003481356814126162 0.000685127890077068 0.002732438298913477)
p Initial residual: 0.01005765157758328
p   Final residual: 0.0009717099356837462
Time step continuity errors : sum local = 0.0003834363732545004
                                 global = 5.236748828724454e-06
                             cumulative = 8.518953818049797e-05
nuTilda Initial residual: 0.009154506126221269
nuTilda   Final residual: 0.0006159761994572532
Bounding nuTilda>1e-16
CD: 0.3120656121058672 final: 0.3120656121058672
CL: 2.454826692432424 final: 2.454826692432424
skewness: 1.46071325627589 final: 1.46071325627589
nonOrtho: 43.9756466939745 final: 43.9756466939745
yPlus min: 0.01938847523002459 max: 20.12224083153734 mean: 4.278613265686404
ExecutionTime = 1638.5 s  ClockTime = 1643 s

Time = 800

U Initial residual: (0.005577034583044344 0.01124993543437017 0.04282183229502445)
U   Final residual: (0.0005519724545357578 0.0009859497332609798 0.00375479904756937)
p Initial residual: 0.01087586705826985
p   Final residual: 0.0009712611680204853
Time step continuity errors : sum local = 0.0003890637702866219
                                 global = 5.017743631149492e-06
                             cumulative = 9.020728181164746e-05
nuTilda Initial residual: 0.01257855838263867
nuTilda   Final residual: 0.000990092541687844
Bounding nuTilda>1e-16
CD: 0.4279582443629599 final: 0.4279582443629599
CL: 2.608038555195658 final: 2.608038555195658
skewness: 1.46071325627589 final: 1.46071325627589
nonOrtho: 43.9756466939745 final: 43.9756466939745
yPlus min: 0.01321470186779519 max: 19.99764430154033 mean: 4.346654720296068
ExecutionTime = 1639.19 s  ClockTime = 1644 s

Time = 900

U Initial residual: (0.005872723751765046 0.01142357610741575 0.04414257918276088)
U   Final residual: (0.0005258812140500136 0.001091568738128098 0.003652039857085948)
p Initial residual: 0.01095778803906254
p   Final residual: 0.001047112401865926
Time step continuity errors : sum local = 0.0004294384680633
                                 global = 1.659486279132288e-05
                             cumulative = 0.0001068021446029703
nuTilda Initial residual: 0.01736850497127289
nuTilda   Final residual: 0.001652577228015656
Bounding nuTilda>1e-16
CD: 0.5151024372228822 final: 0.5151024372228822
CL: 2.749731434602856 final: 2.749731434602856
skewness: 1.46071325627589 final: 1.46071325627589
nonOrtho: 43.9756466939745 final: 43.9756466939745
yPlus min: 0.0363626888369472 max: 19.91905562378746 mean: 4.323701748348909
ExecutionTime = 1639.86 s  ClockTime = 1645 s

Time = 1000

U Initial residual: (0.006149070370877309 0.01211866473765495 0.04350934412838243)
U   Final residual: (0.0005693349429920731 0.0007413258852059338 0.00372116437631197)
p Initial residual: 0.01181175997104873
p   Final residual: 0.001111158311893802
Time step continuity errors : sum local = 0.0004685477565792067
                                 global = -6.922224979284897e-06
                             cumulative = 9.987991962368544e-05
nuTilda Initial residual: 0.01844520031320472
nuTilda   Final residual: 0.001141331744066214
Bounding nuTilda>1e-16
CD: 0.5221382505431567 final: 0.5221382505431567
CL: 2.777891292558518 final: 2.777891292558518
skewness: 1.46071325627589 final: 1.46071325627589
nonOrtho: 43.9756466939745 final: 43.9756466939745
yPlus min: 0.03771043893350169 max: 19.91145035258641 mean: 4.245126682945955
ExecutionTime = 1640.55 s  ClockTime = 1645 s

End

********************************************
Primal min residual 0.01844520031320472
did not satisfy the prescribed tolerance 0.0001
Primal solution failed!
********************************************
Nonlinear constraints
{'geometry.thickcon0': array([1.09446884, 1.1113258 , 1.11738381, 1.11693524, 1.09586437,
       1.09585829, 1.11693525, 1.11738383, 1.11132463, 1.06952931,
       1.09446884, 1.1113258 , 1.11738381, 1.11693524, 1.09586437,
       1.09585829, 1.11693525, 1.11738383, 1.11132463, 1.06952931]),
 'scenario1.aero_post.functionals.CL': array([2.85582109])}

Objectives
{'scenario1.aero_post.functionals.CD': array([0.4123506])}

Exception of type: Eval_Error in file "../../../src/Algorithm/IpOrigIpoptNLP.cpp" at line 572:
 Exception message: Error evaluating the equality constraints
Warning: Cutting back alpha due to evaluation error
Starting checks for alpha (primal) = 1.17e-01
Driver debug print for iter coord: rank0:pyOptSparse_IPOPT|9
------------------------------------------------------------
Design Vars
{'dvs.patchV': array([5.       , 2.6456176]),
 'dvs.shape0': array([ 0.00550355,  0.03000616,  0.00245716, -0.02258559,  0.00202009,
        0.02863095,  0.00104878, -0.02262484, -0.00020051,  0.02963517,
       -0.00224056, -0.01327398,  0.01581242, -0.00229583,  0.00117657]),
 'dvs.translate1': array([-0.00389907, -0.00998451]),
 'dvs.twist1': array([-0.59817524])}

DAInputVolCoord. 
Setting volume coordinates. 
DAInputPatchVelocity. 
Setting UMag = 5 AoA = 2.645617600615661 degs at 1(inout)
Checking mesh quality for time = 1000
    Overall domain bounding box (-10.10049281916138 -10.71667983325876 -7.31921309923799e-10) (11.87656082030742 10.39525624156721 0.1000000007613292)
    Mesh has 3 geometric (non-empty/wedge) directions 3{1}
    Mesh has 3 solution (non-empty) directions 3{1}
    Boundary openness (3.336942536421753e-19 -4.045999360546799e-19 -7.760217858881869e-16) OK.
    Max cell openness = 4.219310606689959e-16 OK.
    Max aspect ratio = 1824.894563037747 OK.
    Minimum face area = 2.072307568891112e-08. Maximum face area = 1.183302885199485.  Face area magnitudes OK.
    Min volume = 2.072307569232726e-09. Max volume = 0.1183302893643227.  Total volume = 45.93551660370945.  Cell volumes OK.
    Mesh non-orthogonality Max: 43.07211791117279 average: 4.396321962317119
    Non-orthogonality check OK.
    Face pyramids OK.
    Max skewness = 1.43428218358013 OK.
    Coupled point location match (average 0) OK.

Mesh OK.

Running Primal Solver 010
Previous solution time 1000 found and deleted.
No finite volume options present

Starting time loop

Time = 1

U Initial residual: (0.00619694211691615 0.01362401169431189 0.04463434661002157)
U   Final residual: (0.0005581864822254202 0.00119846508872232 0.003749526142808234)
p Initial residual: 0.01221501018652462
p   Final residual: 0.0008363096870612285
Time step continuity errors : sum local = 0.0003510876140101572
                                 global = 4.662007612400656e-06
                             cumulative = 0.0001045419272360861
nuTilda Initial residual: 0.01850315412355724
nuTilda   Final residual: 0.001110975020301886
Bounding nuTilda>1e-16
CD: 0.4878945943696281 final: 0.4878945943696281
CL: 2.829718475798733 final: 2.829718475798733
skewness: 1.459578622727363 final: 1.459578622727363
nonOrtho: 43.96319184107708 final: 43.96319184107708
yPlus min: 0.03599012463197075 max: 19.90817681792295 mean: 4.252134400197757
ExecutionTime = 1640.75 s  ClockTime = 1646 s

Time = 100

U Initial residual: (0.005888497753470646 0.01258292362908609 0.0443662724624374)
U   Final residual: (0.0003658294164211086 0.0008160080598266059 0.004096449699455788)
p Initial residual: 0.01202277191402423
p   Final residual: 0.001186247093113175
Time step continuity errors : sum local = 0.0004813858197818584
                                 global = 2.145053205663876e-06
                             cumulative = 0.00010668698044175
nuTilda Initial residual: 0.01695294377037279
nuTilda   Final residual: 0.001072497332226927
Bounding nuTilda>1e-16
CD: 0.480049086503077 final: 0.480049086503077
CL: 2.698394675570187 final: 2.698394675570187
skewness: 1.459578622727363 final: 1.459578622727363
nonOrtho: 43.96319184107708 final: 43.96319184107708
yPlus min: 0.08208963748367776 max: 19.84523759190766 mean: 4.249519945921529
ExecutionTime = 1641.43 s  ClockTime = 1647 s

Time = 200

U Initial residual: (0.004836989172863872 0.01126089740539477 0.03872435725879728)
U   Final residual: (0.0003284148663458018 0.0007435305907763684 0.002400673694512468)
p Initial residual: 0.01057612011987892
p   Final residual: 0.0005922105220424893
Time step continuity errors : sum local = 0.0002257457286842532
                                 global = 7.789394611656633e-07
                             cumulative = 0.0001074659199029156
nuTilda Initial residual: 0.01263613073635832
nuTilda   Final residual: 0.000863466049382426
Bounding nuTilda>1e-16
CD: 0.4161794033287453 final: 0.4161794033287453
CL: 2.643816280377854 final: 2.643816280377854
skewness: 1.459578622727363 final: 1.459578622727363
nonOrtho: 43.96319184107708 final: 43.96319184107708
yPlus min: 0.0316883684434464 max: 20.06713840667774 mean: 4.287287175360698
ExecutionTime = 1642.12 s  ClockTime = 1648 s

Time = 300

U Initial residual: (0.004582731547204198 0.01018636843120607 0.03485687850957478)
U   Final residual: (0.0003153733364434472 0.0006603745331816367 0.002297835371194565)
p Initial residual: 0.009829869457316672
p   Final residual: 0.0005290071783208198
Time step continuity errors : sum local = 0.0002085589991233025
                                 global = -1.388276087823858e-06
                             cumulative = 0.0001060776438150918
nuTilda Initial residual: 0.01192331750831404
nuTilda   Final residual: 0.0007742375582553272
Bounding nuTilda>1e-16
CD: 0.4036918777608067 final: 0.4036918777608067
CL: 2.65282732944768 final: 2.65282732944768
skewness: 1.459578622727363 final: 1.459578622727363
nonOrtho: 43.96319184107708 final: 43.96319184107708
yPlus min: 0.04264066675930991 max: 20.14749332434091 mean: 4.308423956880994
ExecutionTime = 1642.82 s  ClockTime = 1648 s

Time = 400

U Initial residual: (0.004366900059713985 0.009355969068261718 0.03361703509468154)
U   Final residual: (0.0003131252998710516 0.0006119503954313252 0.002314792364967103)
p Initial residual: 0.009193535209221964
p   Final residual: 0.0004735745320155286
Time step continuity errors : sum local = 0.0001839838876432155
                                 global = 1.813633802599103e-06
                             cumulative = 0.0001078912776176909
nuTilda Initial residual: 0.01083601584669733
nuTilda   Final residual: 0.0007158771300961986
Bounding nuTilda>1e-16
CD: 0.3960449154238015 final: 0.3960449154238015
CL: 2.633756179244799 final: 2.633756179244799
skewness: 1.459578622727363 final: 1.459578622727363
nonOrtho: 43.96319184107708 final: 43.96319184107708
yPlus min: 0.01412164311112713 max: 20.18424545984994 mean: 4.316970910911951
ExecutionTime = 1643.52 s  ClockTime = 1649 s

Time = 500

U Initial residual: (0.004470737277894649 0.009361790858895692 0.03277061196367089)
U   Final residual: (0.0003209264244768018 0.0005762380958522835 0.002327239084743981)
p Initial residual: 0.00936360675088475
p   Final residual: 0.0004777457861705682
Time step continuity errors : sum local = 0.0001846406067883323
                                 global = 2.64169331780839e-06
                             cumulative = 0.0001105329709354993
nuTilda Initial residual: 0.01040152507805181
nuTilda   Final residual: 0.0006544422708208431
Bounding nuTilda>1e-16
CD: 0.3801512129016477 final: 0.3801512129016477
CL: 2.613397502643265 final: 2.613397502643265
skewness: 1.459578622727363 final: 1.459578622727363
nonOrtho: 43.96319184107708 final: 43.96319184107708
yPlus min: 0.01552226886012501 max: 20.20018615112721 mean: 4.321909690480419
ExecutionTime = 1644.22 s  ClockTime = 1650 s

Time = 600

U Initial residual: (0.004325494733966991 0.008735708411290687 0.03194428333845457)
U   Final residual: (0.0003191912044578595 0.0005428494286791717 0.002320468932497839)
p Initial residual: 0.008725120567715485
p   Final residual: 0.00086022650295734
Time step continuity errors : sum local = 0.000332905902300568
                                 global = 7.013693396405897e-06
                             cumulative = 0.0001175466643319051
nuTilda Initial residual: 0.009660084873068981
nuTilda   Final residual: 0.0005801273414914406
Bounding nuTilda>1e-16
CD: 0.3719588267986317 final: 0.3719588267986317
CL: 2.604538167012394 final: 2.604538167012394
skewness: 1.459578622727363 final: 1.459578622727363
nonOrtho: 43.96319184107708 final: 43.96319184107708
yPlus min: 0.0364968643421818 max: 20.20674265159262 mean: 4.322944636161468
ExecutionTime = 1644.92 s  ClockTime = 1650 s

Time = 700

U Initial residual: (0.004357359723830428 0.00853391811490075 0.03169607647307752)
U   Final residual: (0.0003215644214844867 0.0005245492931026522 0.002324272496734606)
p Initial residual: 0.008809424927722017
p   Final residual: 0.0004467427246258988
Time step continuity errors : sum local = 0.0001720275155393862
                                 global = 3.947431995746911e-06
                             cumulative = 0.0001214940963276521
nuTilda Initial residual: 0.009395681325885535
nuTilda   Final residual: 0.0009248730774874324
Bounding nuTilda>1e-16
CD: 0.3700222959841339 final: 0.3700222959841339
CL: 2.606715038328382 final: 2.606715038328382
skewness: 1.459578622727363 final: 1.459578622727363
nonOrtho: 43.96319184107708 final: 43.96319184107708
yPlus min: 0.04876262206288735 max: 20.21359824661164 mean: 4.319778582788929
ExecutionTime = 1645.62 s  ClockTime = 1651 s

Time = 800

U Initial residual: (0.004288185485616738 0.008165502121754917 0.03152858996316264)
U   Final residual: (0.0003193313323546571 0.0005085739499597296 0.002327881710188913)
p Initial residual: 0.00878584168207896
p   Final residual: 0.0004690978251828276
Time step continuity errors : sum local = 0.0001788349513134897
                                 global = 4.116911811641406e-06
                             cumulative = 0.0001256110081392935
nuTilda Initial residual: 0.008863472786083772
nuTilda   Final residual: 0.0008716883872544542
Bounding nuTilda>1e-16
CD: 0.3614236318902783 final: 0.3614236318902783
CL: 2.595334216380431 final: 2.595334216380431
skewness: 1.459578622727363 final: 1.459578622727363
nonOrtho: 43.96319184107708 final: 43.96319184107708
yPlus min: 0.04259301173775797 max: 20.20894529930392 mean: 4.315129549108966
ExecutionTime = 1646.31 s  ClockTime = 1652 s

Time = 900

U Initial residual: (0.004298342096526122 0.008002665970565676 0.03142941779353857)
U   Final residual: (0.0003203060772060811 0.0005050697653790808 0.00233867777432426)
p Initial residual: 0.008658195055262535
p   Final residual: 0.0004579847282955003
Time step continuity errors : sum local = 0.0001750258205418778
                                 global = 4.424903017595972e-06
                             cumulative = 0.0001300359111568894
nuTilda Initial residual: 0.008620177849135905
nuTilda   Final residual: 0.0008557968935433482
Bounding nuTilda>1e-16
CD: 0.356405306888292 final: 0.356405306888292
CL: 2.591918592123035 final: 2.591918592123035
skewness: 1.459578622727363 final: 1.459578622727363
nonOrtho: 43.96319184107708 final: 43.96319184107708
yPlus min: 0.06217854892557213 max: 20.2114797925201 mean: 4.316176277832484
ExecutionTime = 1647 s  ClockTime = 1652 s

Time = 1000

U Initial residual: (0.004282686269192162 0.007911956206082088 0.03142883289901251)
U   Final residual: (0.0003207431545521886 0.0005066117217407837 0.002365860950967343)
p Initial residual: 0.00822744390449264
p   Final residual: 0.0007962821299269854
Time step continuity errors : sum local = 0.0003062833014124838
                                 global = 8.841713129650967e-06
                             cumulative = 0.0001388776242865404
nuTilda Initial residual: 0.008260004933676313
nuTilda   Final residual: 0.0004832414052558575
Bounding nuTilda>1e-16
CD: 0.3474941065137992 final: 0.3474941065137992
CL: 2.580210664692523 final: 2.580210664692523
skewness: 1.459578622727363 final: 1.459578622727363
nonOrtho: 43.96319184107708 final: 43.96319184107708
yPlus min: 0.04386568201726197 max: 20.21312539228401 mean: 4.316876987762272
ExecutionTime = 1647.68 s  ClockTime = 1653 s

End

Printing Primal Residual Statistics.
U Residual Norm2: (13135.6120528162 8971.963448336717 2.30095534553008)
U Residual Mean: (13.95636046724087 10.68760993310091 0.002082231691313483)
U Residual Max: (4423.388418812354 2050.193160932793 0.2844208446990109)
p Residual Norm2: 5001.364939935314
p Residual Mean: 1.632263897999574
p Residual Max: 1900.468688057953
nuTilda Residual Norm2: 5.679680565550734
nuTilda Residual Mean: 0.007775902895529227
nuTilda Residual Max: 0.3814984445334175
phi Residual Norm2: 8.931894157480816
phi Residual Mean: 0.004495899807234202
phi Residual Max: 0.6561777498204442
 
 
Nonlinear constraints
{'geometry.thickcon0': array([1.09087606, 1.10535891, 1.11040174, 1.10966772, 1.09321621,
       1.09321063, 1.10966772, 1.11040176, 1.10535785, 1.07248612,
       1.09087606, 1.10535891, 1.11040174, 1.10966772, 1.09321621,
       1.09321063, 1.10966772, 1.11040176, 1.10535785, 1.07248612]),
 'scenario1.aero_post.functionals.CL': array([2.58021066])}

Objectives
{'scenario1.aero_post.functionals.CD': array([0.34749411])}

Checking acceptability for trial step size alpha_primal_test= 1.170571e-01:
  New values of barrier function     =  2.5394346819829270e+01  (reference  2.5679992517161885e+01):
  New values of constraint violation =  1.1390073114382329e+00  (reference  8.7938434011661548e-01):
reference_theta = 8.793843e-01 reference_gradBarrTDelta = -2.053283e+00
Checking sufficient reduction...
Succeeded...
Checking filter acceptability...
Succeeded...
reference_theta = 8.793843e-01 reference_gradBarrTDelta = -2.053283e+00
Computing d[CD]/d[aero_states]^T * psi
Computing d[CD]/d[aero_vol_coords]^T * psi
Computing d[CD]/d[patchV]^T * psi
Moving time 1000 to 0.0004
Driver total derivatives for iteration: 4
---------------------------------------------
Solving Linear Equation... 1655 s
Main iteration 0 KSP Residual norm 4.717119619275e-02 1655 s
Main iteration 100 KSP Residual norm 4.025915846613e-02 1672 s
Main iteration 200 KSP Residual norm 3.605475332235e-02 1692 s
Main iteration 300 KSP Residual norm 3.231969822571e-02 1715 s
Main iteration 400 KSP Residual norm 3.092604242726e-02 1740 s
Main iteration 500 KSP Residual norm 3.036206684595e-02 1768 s
Main iteration 600 KSP Residual norm 2.961150460778e-02 1799 s
